crystal_ligand
                    3D
 Schrodinger Suite 2021-4.
 37 39  0  0  1  0            999 V2000
  -10.5770  -19.3560    7.2410 N   0  0  0  0  0  0
   -9.3260  -19.5480    7.0030 C   0  0  0  0  0  0
   -8.8520  -20.7250    6.5270 N   0  0  0  0  0  0
   -8.3100  -18.4400    7.3550 C   0  0  0  0  0  0
   -8.6540  -17.4000    8.3090 C   0  0  0  0  0  0
   -7.7500  -16.4000    8.6200 C   0  0  0  0  0  0
   -6.4540  -16.4020    8.0560 C   0  0  0  0  0  0
   -5.5060  -15.4210    8.4270 C   0  0  0  0  0  0
   -4.2700  -15.4350    7.8310 C   0  0  0  0  0  0
   -3.9030  -16.4230    6.8700 C   0  0  0  0  0  0
   -4.8040  -17.4020    6.5160 C   0  0  0  0  0  0
   -6.1010  -17.4120    7.1110 C   0  0  0  0  0  0
   -7.0440  -18.4150    6.7740 C   0  0  0  0  0  0
   -3.2060  -14.4370    8.1730 C   0  0  0  0  0  0
   -2.4420  -14.0310    7.3010 O   0  0  0  0  0  0
   -3.1290  -14.0740    9.5060 N   0  0  0  0  0  0
   -2.1730  -13.1950   10.0900 C   0  0  0  0  0  0
   -1.7390  -13.4340   11.4070 C   0  0  0  0  0  0
   -0.7540  -12.6010   11.9590 C   0  0  0  0  0  0
   -0.2090  -11.5690   11.2000 C   0  0  0  0  0  0
   -0.6370  -11.3450    9.8940 C   0  0  0  0  0  0
   -1.6260  -12.1310    9.3370 C   0  0  0  0  0  0
  -10.8530  -18.4510    7.5990 H   0  0  0  0  0  0
   -7.8650  -20.9480    6.4490 H   0  0  0  0  0  0
   -9.4920  -21.4690    6.2720 H   0  0  0  0  0  0
   -9.6240  -17.3900    8.8000 H   0  0  0  0  0  0
   -8.0200  -15.6110    9.3200 H   0  0  0  0  0  0
   -5.7580  -14.6980    9.2000 H   0  0  0  0  0  0
   -2.9110  -16.4040    6.4190 H   0  0  0  0  0  0
   -4.5420  -18.1560    5.7760 H   0  0  0  0  0  0
   -6.7460  -19.1360    6.0170 H   0  0  0  0  0  0
   -3.7750  -14.4870   10.1710 H   0  0  0  0  0  0
   -2.1370  -14.2490   12.0090 H   0  0  0  0  0  0
   -0.4080  -12.7610   12.9790 H   0  0  0  0  0  0
    0.5720  -10.9330   11.6150 H   0  0  0  0  0  0
   -0.1740  -10.5630    9.2920 H   0  0  0  0  0  0
   -1.9780  -11.8720    8.3410 H   0  0  0  0  0  0
  1  2  2  0  0  0
  1 23  1  0  0  0
  2  3  1  0  0  0
  2  4  1  0  0  0
  3 24  1  0  0  0
  3 25  1  0  0  0
  4  5  2  0  0  0
  4 13  1  0  0  0
  5  6  1  0  0  0
  5 26  1  0  0  0
  6  7  2  0  0  0
  6 27  1  0  0  0
  7  8  1  0  0  0
  7 12  1  0  0  0
  8  9  2  0  0  0
  8 28  1  0  0  0
  9 10  1  0  0  0
  9 14  1  0  0  0
 10 11  2  0  0  0
 10 29  1  0  0  0
 11 12  1  0  0  0
 11 30  1  0  0  0
 12 13  2  0  0  0
 13 31  1  0  0  0
 14 15  2  0  0  0
 14 16  1  0  0  0
 16 17  1  0  0  0
 16 32  1  0  0  0
 17 18  2  0  0  0
 17 22  1  0  0  0
 18 19  1  0  0  0
 18 33  1  0  0  0
 19 20  2  0  0  0
 19 34  1  0  0  0
 20 21  1  0  0  0
 20 35  1  0  0  0
 21 22  2  0  0  0
 21 36  1  0  0  0
 22 37  1  0  0  0
M  END
> <i_m_stars>
0

> <s_m_entry_id>
293

> <s_m_entry_name>
Structure293

> <s_pdb_PDB_TITLE>
CRYSTAL STRUCTURE OF THE UROKINASE

> <s_pdb_PDB_format_version>
3.30

> <s_m_Source_Path>
/Users/mmunicoy

> <s_m_Source_File>
4fu9.pdb

> <i_m_Source_File_Index>
1

> <s_pdb_PDB_ID>
4FU9

> <r_pdb_PDB_CRYST1_a>
55.1

> <r_pdb_PDB_CRYST1_b>
52.4

> <r_pdb_PDB_CRYST1_c>
80.25

> <r_pdb_PDB_CRYST1_alpha>
90

> <r_pdb_PDB_CRYST1_beta>
90

> <r_pdb_PDB_CRYST1_gamma>
90

> <s_pdb_PDB_CRYST1_Space_Group>
P 21 21 21

> <i_pdb_PDB_CRYST1_z>
4

> <s_pdb_PDB_CLASSIFICATION>
HYDROLASE/HYDROLASE INHIBITOR

> <s_pdb_PDB_DEPOSITION_DATE>
28-JUN-12

> <r_pdb_PDB_R>
0.15

> <r_pdb_PDB_Rfree>
0.182

> <r_pdb_PDB_RESOLUTION>
1.6

> <s_pdb_PDB_EXPDTA>
X-RAY DIFFRACTION

> <r_pdb_PDB_EXPDTA_TEMPERATURE>
160

> <r_pdb_PDB_EXPDTA_PH>
4.8

> <s_pdb_PDB_REMARK_350_Biomolecule_1_Transform_1_Chains>
A

> <s_pdb_PDB_REMARK_350_Biomolecule_1_Transform_1_Matrix_1>
1.000000 0.000000 0.000000   0.000000;0.000000 1.000000 0.000000   0.000000;0.000000 0.000000 1.000000   0.000000

$$$$
