chembl_21
                    3D
 Schrodinger Suite 2021-4.
 46 48  0  0  1  0            999 V2000
    1.1280  -21.0080    9.6370 C   0  0  0  0  0  0
    0.2450  -20.0070    9.0560 N   0  0  0  0  0  0
   -0.9640  -20.3050    8.4570 C   0  0  0  0  0  0
   -1.4420  -21.4310    8.3010 O   0  0  0  0  0  0
   -1.5240  -19.1560    8.0510 O   0  0  0  0  0  0
   -2.8320  -19.1360    7.4920 C   0  0  0  0  0  0
   -2.9300  -18.0690    6.3800 C   0  0  2  0  0  0
   -4.3010  -17.7470    6.1480 O   0  0  0  0  0  0
   -5.0060  -17.0760    7.1220 C   0  0  0  0  0  0
   -4.4500  -16.0260    7.8920 C   0  0  0  0  0  0
   -5.2240  -15.3750    8.8670 C   0  0  0  0  0  0
   -6.5610  -15.7530    9.0680 C   0  0  0  0  0  0
   -7.1160  -16.7890    8.3010 C   0  0  0  0  0  0
   -8.7500  -17.4280    8.3810 S   0  0  0  0  0  0
   -8.3640  -18.6590    7.2100 C   0  0  0  0  0  0
   -9.3560  -19.6470    6.8670 C   0  0  0  0  0  0
   -9.0420  -20.8110    6.3010 N   0  3  0  0  0  0
  -10.6420  -19.4310    7.1010 N   0  0  0  0  0  0
   -7.1050  -18.5340    6.6810 C   0  0  0  0  0  0
   -6.3480  -17.4830    7.3160 C   0  0  0  0  0  0
   -2.2630  -18.5360    5.0940 C   0  0  0  0  0  0
   -3.0390  -19.0310    4.0210 C   0  0  0  0  0  0
   -2.4180  -19.4460    2.8280 C   0  0  0  0  0  0
   -1.0170  -19.3830    2.7030 C   0  0  0  0  0  0
   -0.2380  -18.9030    3.7730 C   0  0  0  0  0  0
   -0.8590  -18.4790    4.9640 C   0  0  0  0  0  0
    2.0140  -20.5190   10.0450 H   0  0  0  0  0  0
    0.6060  -21.5360   10.4350 H   0  0  0  0  0  0
    1.4280  -21.7190    8.8680 H   0  0  0  0  0  0
    0.5590  -19.0490    9.1090 H   0  0  0  0  0  0
   -3.5570  -18.9130    8.2750 H   0  0  0  0  0  0
   -3.0650  -20.1160    7.0760 H   0  0  0  0  0  0
   -2.4200  -17.1680    6.7230 H   0  0  0  0  0  0
   -3.4270  -15.7220    7.7310 H   0  0  0  0  0  0
   -4.7900  -14.5850    9.4620 H   0  0  0  0  0  0
   -7.1600  -15.2450    9.8100 H   0  0  0  0  0  0
   -9.7680  -21.4750    6.0760 H   0  0  0  0  0  0
   -8.0770  -21.0280    6.0960 H   0  0  0  0  0  0
  -11.3250  -20.1330    6.8550 H   0  0  0  0  0  0
  -10.9390  -18.5640    7.5260 H   0  0  0  0  0  0
   -6.7880  -19.1860    5.8810 H   0  0  0  0  0  0
   -4.1130  -19.0920    4.1150 H   0  0  0  0  0  0
   -3.0170  -19.8120    2.0070 H   0  0  0  0  0  0
   -0.5420  -19.7040    1.7880 H   0  0  0  0  0  0
    0.8380  -18.8580    3.6800 H   0  0  0  0  0  0
   -0.2550  -18.1090    5.7800 H   0  0  0  0  0  0
  1  2  1  0  0  0
  1 27  1  0  0  0
  1 28  1  0  0  0
  1 29  1  0  0  0
  2  3  1  0  0  0
  2 30  1  0  0  0
  3  4  2  0  0  0
  3  5  1  0  0  0
  5  6  1  0  0  0
  6  7  1  0  0  0
  6 31  1  0  0  0
  6 32  1  0  0  0
  7  8  1  0  0  0
  7 21  1  0  0  0
  7 33  1  0  0  0
  8  9  1  0  0  0
  9 20  2  0  0  0
  9 10  1  0  0  0
 10 11  2  0  0  0
 10 34  1  0  0  0
 11 12  1  0  0  0
 11 35  1  0  0  0
 12 13  2  0  0  0
 12 36  1  0  0  0
 13 20  1  0  0  0
 13 14  1  0  0  0
 14 15  1  0  0  0
 15 16  1  0  0  0
 15 19  2  0  0  0
 16 17  2  0  0  0
 16 18  1  0  0  0
 17 37  1  0  0  0
 17 38  1  0  0  0
 18 39  1  0  0  0
 18 40  1  0  0  0
 19 20  1  0  0  0
 19 41  1  0  0  0
 21 26  2  0  0  0
 21 22  1  0  0  0
 22 23  2  0  0  0
 22 42  1  0  0  0
 23 24  1  0  0  0
 23 43  1  0  0  0
 24 25  2  0  0  0
 24 44  1  0  0  0
 25 26  1  0  0  0
 25 45  1  0  0  0
 26 46  1  0  0  0
M  CHG  1  17   1
M  END
> <s_m_entry_id>
148

> <s_m_entry_name>
4FU9_chembl_21.1

> <s_pdb_PDB_TITLE>
CRYSTAL STRUCTURE OF THE UROKINASE

> <s_pdb_PDB_format_version>
3.30

> <s_m_Source_Path>
/Users/mmunicoy/Documents/NBD/Projects/JJ/urokinase

> <s_m_Source_File>
4FU9_chembl_21.pdb

> <i_m_Source_File_Index>
1

> <s_pdb_PDB_ID>
4FU9

> <r_pdb_PDB_CRYST1_a>
55.1

> <r_pdb_PDB_CRYST1_b>
52.4

> <r_pdb_PDB_CRYST1_c>
80.25

> <r_pdb_PDB_CRYST1_alpha>
90

> <r_pdb_PDB_CRYST1_beta>
90

> <r_pdb_PDB_CRYST1_gamma>
90

> <s_pdb_PDB_CRYST1_Space_Group>
P 21 21 21

> <i_pdb_PDB_CRYST1_z>
4

> <s_pdb_PDB_CLASSIFICATION>
HYDROLASE/HYDROLASE INHIBITOR

> <s_pdb_PDB_DEPOSITION_DATE>
28-JUN-12

> <r_pdb_PDB_R>
0.15

> <r_pdb_PDB_Rfree>
0.182

> <r_pdb_PDB_RESOLUTION>
1.6

> <s_pdb_PDB_EXPDTA>
X-RAY DIFFRACTION

> <r_pdb_PDB_EXPDTA_TEMPERATURE>
160

> <r_pdb_PDB_EXPDTA_PH>
4.8

> <s_pdb_PDB_REMARK_350_Biomolecule_1_Transform_1_Chains>
A

> <s_pdb_PDB_REMARK_350_Biomolecule_1_Transform_1_Matrix_1>
1.000000 0.000000 0.000000   0.000000;0.000000 1.000000 0.000000   0.000000;0.000000 0.000000 1.000000   0.000000

> <s_m_subgroup_title>
ligands

> <s_m_subgroupid>
ligands1

> <b_m_subgroup_collapsed>
0

$$$$
chembl_23
                    3D
 Schrodinger Suite 2021-4.
 53 56  0  0  1  0            999 V2000
   -3.5010   -9.6320    8.6810 C   0  0  0  0  0  0
   -2.0920   -9.1080    8.9130 C   0  0  0  0  0  0
   -1.9370   -7.6800    8.4130 C   0  0  0  0  0  0
   -1.1020   -9.7870    9.5530 C   0  0  0  0  0  0
    0.1190   -9.1780    9.8260 N   0  0  0  0  0  0
    1.0570   -9.6050   10.8550 C   0  0  0  0  0  0
    0.3860  -10.5140   11.8950 C   0  0  0  0  0  0
   -0.4980  -11.5480   11.2220 C   0  0  0  0  0  0
   -0.6330  -12.8370   11.7760 C   0  0  0  0  0  0
   -1.4690  -13.7870   11.1570 C   0  0  0  0  0  0
   -2.0970  -13.4770    9.9330 C   0  0  0  0  0  0
   -2.9600  -14.4420    9.3550 N   0  0  0  0  0  0
   -3.1180  -14.6910    8.0440 C   0  0  0  0  0  0
   -2.3970  -14.2300    7.1580 O   0  0  0  0  0  0
   -4.1940  -15.6750    7.7090 C   0  0  0  0  0  0
   -3.9770  -16.6110    6.6730 C   0  0  0  0  0  0
   -4.9810  -17.5370    6.3330 C   0  0  0  0  0  0
   -6.2090  -17.5250    7.0230 C   0  0  0  0  0  0
   -7.1900  -18.4750    6.7010 C   0  0  0  0  0  0
   -8.4170  -18.5130    7.3960 C   0  0  0  0  0  0
   -9.4380  -19.5550    7.0620 C   0  0  0  0  0  0
  -10.6420  -19.4310    7.4700 N   0  0  0  0  0  0
   -9.0420  -20.6310    6.3030 N   0  0  0  0  0  0
   -8.6700  -17.5290    8.3830 C   0  0  0  0  0  0
   -7.6960  -16.5600    8.7000 C   0  0  0  0  0  0
   -6.4510  -16.5700    8.0370 C   0  0  0  0  0  0
   -5.4420  -15.6460    8.3770 C   0  0  0  0  0  0
   -1.9130  -12.2000    9.3570 C   0  0  0  0  0  0
   -1.1760  -11.1980   10.0280 C   0  0  0  0  0  0
   -3.5750  -10.6550    9.0500 H   0  0  0  0  0  0
   -4.2150   -9.0030    9.2120 H   0  0  0  0  0  0
   -3.7250   -9.6150    7.6140 H   0  0  0  0  0  0
   -1.7660   -9.5010    7.9500 H   0  0  0  0  0  0
   -0.9170   -7.3400    8.5960 H   0  0  0  0  0  0
   -2.1450   -7.6440    7.3440 H   0  0  0  0  0  0
   -2.6360   -7.0320    8.9410 H   0  0  0  0  0  0
    1.4720   -8.7290   11.3530 H   0  0  0  0  0  0
    1.8880  -10.1360   10.3910 H   0  0  0  0  0  0
   -0.2150   -9.9080   12.5730 H   0  0  0  0  0  0
    1.1530  -11.0200   12.4830 H   0  0  0  0  0  0
   -0.0950  -13.0980   12.6760 H   0  0  0  0  0  0
   -1.6280  -14.7490   11.6200 H   0  0  0  0  0  0
   -3.5340  -15.0250    9.9470 H   0  0  0  0  0  0
   -3.0380  -16.6180    6.1400 H   0  0  0  0  0  0
   -4.8090  -18.2540    5.5440 H   0  0  0  0  0  0
   -7.0120  -19.1900    5.9120 H   0  0  0  0  0  0
  -11.3280  -20.1370    7.2420 H   0  0  0  0  0  0
   -9.7080  -21.3510    6.0610 H   0  0  0  0  0  0
   -8.0850  -20.7010    5.9870 H   0  0  0  0  0  0
   -9.6180  -17.5160    8.9010 H   0  0  0  0  0  0
   -7.9030  -15.8120    9.4510 H   0  0  0  0  0  0
   -5.6240  -14.9130    9.1490 H   0  0  0  0  0  0
   -2.3370  -11.9780    8.3890 H   0  0  0  0  0  0
  1  2  1  0  0  0
  1 30  1  0  0  0
  1 31  1  0  0  0
  1 32  1  0  0  0
  2  3  1  0  0  0
  2  4  1  0  0  0
  2 33  1  0  0  0
  3 34  1  0  0  0
  3 35  1  0  0  0
  3 36  1  0  0  0
  4 29  1  0  0  0
  4  5  2  0  0  0
  5  6  1  0  0  0
  6  7  1  0  0  0
  6 37  1  0  0  0
  6 38  1  0  0  0
  7  8  1  0  0  0
  7 39  1  0  0  0
  7 40  1  0  0  0
  8 29  2  0  0  0
  8  9  1  0  0  0
  9 10  2  0  0  0
  9 41  1  0  0  0
 10 11  1  0  0  0
 10 42  1  0  0  0
 11 12  1  0  0  0
 11 28  2  0  0  0
 12 13  1  0  0  0
 12 43  1  0  0  0
 13 14  2  0  0  0
 13 15  1  0  0  0
 15 27  2  0  0  0
 15 16  1  0  0  0
 16 17  2  0  0  0
 16 44  1  0  0  0
 17 18  1  0  0  0
 17 45  1  0  0  0
 18 26  2  0  0  0
 18 19  1  0  0  0
 19 20  2  0  0  0
 19 46  1  0  0  0
 20 21  1  0  0  0
 20 24  1  0  0  0
 21 22  2  0  0  0
 21 23  1  0  0  0
 22 47  1  0  0  0
 23 48  1  0  0  0
 23 49  1  0  0  0
 24 25  2  0  0  0
 24 50  1  0  0  0
 25 26  1  0  0  0
 25 51  1  0  0  0
 26 27  1  0  0  0
 27 52  1  0  0  0
 28 29  1  0  0  0
 28 53  1  0  0  0
M  END
> <s_m_entry_id>
147

> <s_m_entry_name>
4FU9_chembl_23.1

> <s_pdb_PDB_TITLE>
CRYSTAL STRUCTURE OF THE UROKINASE

> <s_pdb_PDB_format_version>
3.30

> <s_m_Source_Path>
/Users/mmunicoy/Documents/NBD/Projects/JJ/urokinase

> <s_m_Source_File>
4FU9_chembl_23.pdb

> <i_m_Source_File_Index>
1

> <s_pdb_PDB_ID>
4FU9

> <r_pdb_PDB_CRYST1_a>
55.1

> <r_pdb_PDB_CRYST1_b>
52.4

> <r_pdb_PDB_CRYST1_c>
80.25

> <r_pdb_PDB_CRYST1_alpha>
90

> <r_pdb_PDB_CRYST1_beta>
90

> <r_pdb_PDB_CRYST1_gamma>
90

> <s_pdb_PDB_CRYST1_Space_Group>
P 21 21 21

> <i_pdb_PDB_CRYST1_z>
4

> <s_pdb_PDB_CLASSIFICATION>
HYDROLASE/HYDROLASE INHIBITOR

> <s_pdb_PDB_DEPOSITION_DATE>
28-JUN-12

> <r_pdb_PDB_R>
0.15

> <r_pdb_PDB_Rfree>
0.182

> <r_pdb_PDB_RESOLUTION>
1.6

> <s_pdb_PDB_EXPDTA>
X-RAY DIFFRACTION

> <r_pdb_PDB_EXPDTA_TEMPERATURE>
160

> <r_pdb_PDB_EXPDTA_PH>
4.8

> <s_pdb_PDB_REMARK_350_Biomolecule_1_Transform_1_Chains>
A

> <s_pdb_PDB_REMARK_350_Biomolecule_1_Transform_1_Matrix_1>
1.000000 0.000000 0.000000   0.000000;0.000000 1.000000 0.000000   0.000000;0.000000 0.000000 1.000000   0.000000

> <s_m_subgroup_title>
ligands

> <s_m_subgroupid>
ligands1

> <b_m_subgroup_collapsed>
0

$$$$
chembl_24
                    3D
 Schrodinger Suite 2021-4.
 31 33  0  0  1  0            999 V2000
   -9.0420  -20.8350    6.3010 N   0  3  0  0  0  0
   -9.3580  -19.6590    6.8410 C   0  0  0  0  0  0
  -10.6420  -19.4310    7.1010 N   0  0  0  0  0  0
   -8.3510  -18.6630    7.1040 C   0  0  0  0  0  0
   -7.1530  -18.5350    6.4520 C   0  0  0  0  0  0
   -6.3570  -17.4470    6.9690 C   0  0  0  0  0  0
   -5.0720  -16.9860    6.5820 C   0  0  0  0  0  0
   -4.4430  -17.6300    5.5010 N   0  0  0  0  0  0
   -3.1570  -17.7460    5.0160 C   0  0  0  0  0  0
   -2.1700  -17.1010    5.6350 N   0  0  0  0  0  0
   -0.9330  -17.2220    5.1140 C   0  0  0  0  0  0
   -0.6920  -17.9930    3.9620 C   0  0  0  0  0  0
   -1.8100  -18.6310    3.3980 C   0  0  0  0  0  0
   -3.0420  -18.5060    3.9300 N   0  0  0  0  0  0
   -4.4800  -15.8890    7.2510 C   0  0  0  0  0  0
   -5.1450  -15.2490    8.3120 C   0  0  0  0  0  0
   -6.4230  -15.6820    8.7010 C   0  0  0  0  0  0
   -7.0270  -16.7560    8.0270 C   0  0  0  0  0  0
   -8.6270  -17.4310    8.3010 S   0  0  0  0  0  0
   -8.0790  -21.0510    6.0870 H   0  0  0  0  0  0
   -9.7660  -21.5120    6.1050 H   0  0  0  0  0  0
  -10.9260  -18.5530    7.5100 H   0  0  0  0  0  0
  -11.3330  -20.1360    6.8890 H   0  0  0  0  0  0
   -6.9000  -19.2110    5.6490 H   0  0  0  0  0  0
   -4.9890  -18.1760    4.8510 H   0  0  0  0  0  0
   -0.0990  -16.7210    5.5810 H   0  0  0  0  0  0
    0.3090  -18.0670    3.5620 H   0  0  0  0  0  0
   -1.6940  -19.2410    2.5140 H   0  0  0  0  0  0
   -3.5060  -15.5330    6.9490 H   0  0  0  0  0  0
   -4.6740  -14.4250    8.8270 H   0  0  0  0  0  0
   -6.9350  -15.1900    9.5140 H   0  0  0  0  0  0
  1  2  2  0  0  0
  1 20  1  0  0  0
  1 21  1  0  0  0
  2  3  1  0  0  0
  2  4  1  0  0  0
  3 22  1  0  0  0
  3 23  1  0  0  0
  4 19  1  0  0  0
  4  5  2  0  0  0
  5  6  1  0  0  0
  5 24  1  0  0  0
  6 18  2  0  0  0
  6  7  1  0  0  0
  7  8  1  0  0  0
  7 15  2  0  0  0
  8  9  1  0  0  0
  8 25  1  0  0  0
  9 14  2  0  0  0
  9 10  1  0  0  0
 10 11  2  0  0  0
 11 12  1  0  0  0
 11 26  1  0  0  0
 12 13  2  0  0  0
 12 27  1  0  0  0
 13 14  1  0  0  0
 13 28  1  0  0  0
 15 16  1  0  0  0
 15 29  1  0  0  0
 16 17  2  0  0  0
 16 30  1  0  0  0
 17 18  1  0  0  0
 17 31  1  0  0  0
 18 19  1  0  0  0
M  CHG  1   1   1
M  END
> <s_m_entry_id>
149

> <s_m_entry_name>
4FU9_chembl_24.1

> <s_pdb_PDB_TITLE>
CRYSTAL STRUCTURE OF THE UROKINASE

> <s_pdb_PDB_format_version>
3.30

> <s_m_Source_Path>
/Users/mmunicoy/Documents/NBD/Projects/JJ/urokinase

> <s_m_Source_File>
4FU9_chembl_24.pdb

> <i_m_Source_File_Index>
1

> <s_pdb_PDB_ID>
4FU9

> <r_pdb_PDB_CRYST1_a>
55.1

> <r_pdb_PDB_CRYST1_b>
52.4

> <r_pdb_PDB_CRYST1_c>
80.25

> <r_pdb_PDB_CRYST1_alpha>
90

> <r_pdb_PDB_CRYST1_beta>
90

> <r_pdb_PDB_CRYST1_gamma>
90

> <s_pdb_PDB_CRYST1_Space_Group>
P 21 21 21

> <i_pdb_PDB_CRYST1_z>
4

> <s_pdb_PDB_CLASSIFICATION>
HYDROLASE/HYDROLASE INHIBITOR

> <s_pdb_PDB_DEPOSITION_DATE>
28-JUN-12

> <r_pdb_PDB_R>
0.15

> <r_pdb_PDB_Rfree>
0.182

> <r_pdb_PDB_RESOLUTION>
1.6

> <s_pdb_PDB_EXPDTA>
X-RAY DIFFRACTION

> <r_pdb_PDB_EXPDTA_TEMPERATURE>
160

> <r_pdb_PDB_EXPDTA_PH>
4.8

> <s_pdb_PDB_REMARK_350_Biomolecule_1_Transform_1_Chains>
A

> <s_pdb_PDB_REMARK_350_Biomolecule_1_Transform_1_Matrix_1>
1.000000 0.000000 0.000000   0.000000;0.000000 1.000000 0.000000   0.000000;0.000000 0.000000 1.000000   0.000000

> <s_m_subgroup_title>
ligands

> <s_m_subgroupid>
ligands1

> <b_m_subgroup_collapsed>
0

$$$$
chembl_25
                    3D
 Schrodinger Suite 2021-4.
 21 22  0  0  1  0            999 V2000
   -9.0420  -20.8180    6.3010 N   0  3  0  0  0  0
   -9.3560  -19.6440    6.8440 C   0  0  0  0  0  0
  -10.6420  -19.4310    7.1010 N   0  0  0  0  0  0
   -8.3550  -18.6410    7.1200 C   0  0  0  0  0  0
   -7.1410  -18.4980    6.4970 C   0  0  0  0  0  0
   -6.3690  -17.4030    7.0340 C   0  0  0  0  0  0
   -5.0790  -16.9210    6.7010 C   0  0  0  0  0  0
   -4.0010  -17.8310    5.1550 I   0  0  0  0  0  0
   -4.5000  -15.8340    7.3840 C   0  0  0  0  0  0
   -5.2040  -15.1940    8.4180 C   0  0  0  0  0  0
   -6.4940  -15.6340    8.7600 C   0  0  0  0  0  0
   -7.0710  -16.7170    8.0740 C   0  0  0  0  0  0
   -8.6660  -17.4140    8.3150 S   0  0  0  0  0  0
   -8.0790  -21.0330    6.0850 H   0  0  0  0  0  0
   -9.7670  -21.4940    6.1050 H   0  0  0  0  0  0
  -10.9370  -18.5570    7.5130 H   0  0  0  0  0  0
  -11.3250  -20.1430    6.8850 H   0  0  0  0  0  0
   -6.8610  -19.1700    5.7000 H   0  0  0  0  0  0
   -3.5120  -15.4900    7.1140 H   0  0  0  0  0  0
   -4.7530  -14.3670    8.9470 H   0  0  0  0  0  0
   -7.0420  -15.1400    9.5480 H   0  0  0  0  0  0
  1  2  2  0  0  0
  1 14  1  0  0  0
  1 15  1  0  0  0
  2  3  1  0  0  0
  2  4  1  0  0  0
  3 16  1  0  0  0
  3 17  1  0  0  0
  4 13  1  0  0  0
  4  5  2  0  0  0
  5  6  1  0  0  0
  5 18  1  0  0  0
  6 12  2  0  0  0
  6  7  1  0  0  0
  7  8  1  0  0  0
  7  9  2  0  0  0
  9 10  1  0  0  0
  9 19  1  0  0  0
 10 11  2  0  0  0
 10 20  1  0  0  0
 11 12  1  0  0  0
 11 21  1  0  0  0
 12 13  1  0  0  0
M  CHG  1   1   1
M  END
> <s_m_entry_id>
150

> <s_m_entry_name>
4FU9_chembl_25.1

> <s_pdb_PDB_TITLE>
CRYSTAL STRUCTURE OF THE UROKINASE

> <s_pdb_PDB_format_version>
3.30

> <s_m_Source_Path>
/Users/mmunicoy/Documents/NBD/Projects/JJ/urokinase

> <s_m_Source_File>
4FU9_chembl_25.pdb

> <i_m_Source_File_Index>
1

> <s_pdb_PDB_ID>
4FU9

> <r_pdb_PDB_CRYST1_a>
55.1

> <r_pdb_PDB_CRYST1_b>
52.4

> <r_pdb_PDB_CRYST1_c>
80.25

> <r_pdb_PDB_CRYST1_alpha>
90

> <r_pdb_PDB_CRYST1_beta>
90

> <r_pdb_PDB_CRYST1_gamma>
90

> <s_pdb_PDB_CRYST1_Space_Group>
P 21 21 21

> <i_pdb_PDB_CRYST1_z>
4

> <s_pdb_PDB_CLASSIFICATION>
HYDROLASE/HYDROLASE INHIBITOR

> <s_pdb_PDB_DEPOSITION_DATE>
28-JUN-12

> <r_pdb_PDB_R>
0.15

> <r_pdb_PDB_Rfree>
0.182

> <r_pdb_PDB_RESOLUTION>
1.6

> <s_pdb_PDB_EXPDTA>
X-RAY DIFFRACTION

> <r_pdb_PDB_EXPDTA_TEMPERATURE>
160

> <r_pdb_PDB_EXPDTA_PH>
4.8

> <s_pdb_PDB_REMARK_350_Biomolecule_1_Transform_1_Chains>
A

> <s_pdb_PDB_REMARK_350_Biomolecule_1_Transform_1_Matrix_1>
1.000000 0.000000 0.000000   0.000000;0.000000 1.000000 0.000000   0.000000;0.000000 0.000000 1.000000   0.000000

> <s_m_subgroup_title>
ligands

> <s_m_subgroupid>
ligands1

> <b_m_subgroup_collapsed>
0

$$$$
chembl_26
                    3D
 Schrodinger Suite 2021-4.
 41 43  0  0  1  0            999 V2000
   -1.9090  -14.8410    7.6660 C   0  0  0  0  0  0
   -2.6730  -15.9680    7.2590 O   0  0  0  0  0  0
   -3.9660  -16.0950    7.7280 C   0  0  0  0  0  0
   -4.5100  -15.2500    8.7200 C   0  0  0  0  0  0
   -5.8420  -15.4080    9.1210 C   0  0  0  0  0  0
   -6.6570  -16.3830    8.5280 C   0  0  0  0  0  0
   -8.0040  -16.4700    8.9210 C   0  0  0  0  0  0
   -8.8150  -17.4990    8.4250 C   0  0  0  0  0  0
   -8.2910  -18.4450    7.5160 C   0  0  0  0  0  0
   -9.1440  -19.5610    7.0900 C   0  0  0  0  0  0
  -10.4770  -19.4310    7.1010 N   0  3  0  0  0  0
   -8.6430  -20.7400    6.7010 N   0  0  0  0  0  0
   -6.9520  -18.3120    7.0660 C   0  0  0  0  0  0
   -6.1190  -17.2810    7.5740 C   0  0  0  0  0  0
   -4.7620  -17.1300    7.1760 C   0  0  0  0  0  0
   -4.1170  -17.9950    6.1850 C   0  0  0  0  0  0
   -3.2070  -19.0550    6.4460 C   0  0  0  0  0  0
   -2.6680  -19.5170    5.3260 N   0  0  0  0  0  0
   -3.2250  -18.7540    4.3520 N   0  0  0  0  0  0
   -2.7820  -18.9830    2.7110 S   0  0  0  0  0  0
   -0.9710  -19.2470    2.8600 C   0  0  0  0  0  0
   -3.4420  -20.2310    2.3010 O   0  0  0  0  0  0
   -3.0420  -17.7020    2.0330 O   0  0  0  0  0  0
   -4.1200  -17.8310    4.8360 C   0  0  0  0  0  0
   -0.9190  -14.8900    7.2120 H   0  0  0  0  0  0
   -2.4100  -13.9270    7.3470 H   0  0  0  0  0  0
   -1.8110  -14.8420    8.7520 H   0  0  0  0  0  0
   -3.8980  -14.4820    9.1700 H   0  0  0  0  0  0
   -6.2520  -14.7760    9.8950 H   0  0  0  0  0  0
   -8.4140  -15.7430    9.6070 H   0  0  0  0  0  0
   -9.8470  -17.5710    8.7360 H   0  0  0  0  0  0
  -11.0620  -20.2000    6.8070 H   0  0  0  0  0  0
  -10.8970  -18.5640    7.4030 H   0  0  0  0  0  0
   -9.2640  -21.4830    6.4150 H   0  0  0  0  0  0
   -7.6440  -20.8860    6.6940 H   0  0  0  0  0  0
   -6.5590  -18.9980    6.3310 H   0  0  0  0  0  0
   -3.0360  -19.3810    7.4610 H   0  0  0  0  0  0
   -0.5440  -19.4100    1.8710 H   0  0  0  0  0  0
   -0.5120  -18.3680    3.3130 H   0  0  0  0  0  0
   -0.7800  -20.1190    3.4860 H   0  0  0  0  0  0
   -4.7550  -17.0830    4.3840 H   0  0  0  0  0  0
  1  2  1  0  0  0
  1 25  1  0  0  0
  1 26  1  0  0  0
  1 27  1  0  0  0
  2  3  1  0  0  0
  3 15  2  0  0  0
  3  4  1  0  0  0
  4  5  2  0  0  0
  4 28  1  0  0  0
  5  6  1  0  0  0
  5 29  1  0  0  0
  6 14  2  0  0  0
  6  7  1  0  0  0
  7  8  2  0  0  0
  7 30  1  0  0  0
  8  9  1  0  0  0
  8 31  1  0  0  0
  9 10  1  0  0  0
  9 13  2  0  0  0
 10 11  2  0  0  0
 10 12  1  0  0  0
 11 32  1  0  0  0
 11 33  1  0  0  0
 12 34  1  0  0  0
 12 35  1  0  0  0
 13 14  1  0  0  0
 13 36  1  0  0  0
 14 15  1  0  0  0
 15 16  1  0  0  0
 16 24  2  0  0  0
 16 17  1  0  0  0
 17 18  2  0  0  0
 17 37  1  0  0  0
 18 19  1  0  0  0
 19 20  1  0  0  0
 19 24  1  0  0  0
 20 21  1  0  0  0
 20 22  2  0  0  0
 20 23  2  0  0  0
 21 38  1  0  0  0
 21 39  1  0  0  0
 21 40  1  0  0  0
 24 41  1  0  0  0
M  CHG  1  11   1
M  END
> <s_m_entry_id>
151

> <s_m_entry_name>
4FU9_chembl_26.1

> <s_pdb_PDB_TITLE>
CRYSTAL STRUCTURE OF THE UROKINASE

> <s_pdb_PDB_format_version>
3.30

> <s_m_Source_Path>
/Users/mmunicoy/Documents/NBD/Projects/JJ/urokinase

> <s_m_Source_File>
4FU9_chembl_26.pdb

> <i_m_Source_File_Index>
1

> <s_pdb_PDB_ID>
4FU9

> <r_pdb_PDB_CRYST1_a>
55.1

> <r_pdb_PDB_CRYST1_b>
52.4

> <r_pdb_PDB_CRYST1_c>
80.25

> <r_pdb_PDB_CRYST1_alpha>
90

> <r_pdb_PDB_CRYST1_beta>
90

> <r_pdb_PDB_CRYST1_gamma>
90

> <s_pdb_PDB_CRYST1_Space_Group>
P 21 21 21

> <i_pdb_PDB_CRYST1_z>
4

> <s_pdb_PDB_CLASSIFICATION>
HYDROLASE/HYDROLASE INHIBITOR

> <s_pdb_PDB_DEPOSITION_DATE>
28-JUN-12

> <r_pdb_PDB_R>
0.15

> <r_pdb_PDB_Rfree>
0.182

> <r_pdb_PDB_RESOLUTION>
1.6

> <s_pdb_PDB_EXPDTA>
X-RAY DIFFRACTION

> <r_pdb_PDB_EXPDTA_TEMPERATURE>
160

> <r_pdb_PDB_EXPDTA_PH>
4.8

> <s_pdb_PDB_REMARK_350_Biomolecule_1_Transform_1_Chains>
A

> <s_pdb_PDB_REMARK_350_Biomolecule_1_Transform_1_Matrix_1>
1.000000 0.000000 0.000000   0.000000;0.000000 1.000000 0.000000   0.000000;0.000000 0.000000 1.000000   0.000000

> <s_m_subgroup_title>
ligands

> <s_m_subgroupid>
ligands1

> <b_m_subgroup_collapsed>
0

$$$$
chembl_27
                    3D
 Schrodinger Suite 2021-4.
 21 22  0  0  1  0            999 V2000
   -5.0420  -14.2740    8.3010 N   0  0  0  0  0  0
   -5.6320  -15.4640    7.8910 C   0  0  0  0  0  0
   -4.9070  -16.3680    7.0880 C   0  0  0  0  0  0
   -5.5000  -17.5750    6.6750 C   0  0  0  0  0  0
   -6.8160  -17.8700    7.0730 C   0  0  0  0  0  0
   -7.3830  -19.0310    6.7100 N   0  0  0  0  0  0
   -8.6280  -19.4040    7.0690 C   0  0  0  0  0  0
   -9.0420  -20.6780    6.7010 N   0  0  0  0  0  0
   -9.4180  -18.5330    7.8440 C   0  0  0  0  0  0
   -8.8700  -17.3000    8.2550 C   0  0  0  0  0  0
   -7.5530  -16.9670    7.8730 C   0  0  0  0  0  0
   -6.9550  -15.7620    8.2830 C   0  0  0  0  0  0
   -4.0960  -14.0570    8.0220 H   0  0  0  0  0  0
   -5.5600  -13.6260    8.8780 H   0  0  0  0  0  0
   -3.8960  -16.1330    6.7880 H   0  0  0  0  0  0
   -4.9450  -18.2670    6.0590 H   0  0  0  0  0  0
   -9.9670  -21.0000    6.9480 H   0  0  0  0  0  0
   -8.4180  -21.2830    6.1860 H   0  0  0  0  0  0
  -10.4260  -18.8140    8.1130 H   0  0  0  0  0  0
   -9.4560  -16.6220    8.8560 H   0  0  0  0  0  0
   -7.5060  -15.0650    8.8970 H   0  0  0  0  0  0
  1  2  1  0  0  0
  1 13  1  0  0  0
  1 14  1  0  0  0
  2 12  2  0  0  0
  2  3  1  0  0  0
  3  4  2  0  0  0
  3 15  1  0  0  0
  4  5  1  0  0  0
  4 16  1  0  0  0
  5 11  2  0  0  0
  5  6  1  0  0  0
  6  7  2  0  0  0
  7  8  1  0  0  0
  7  9  1  0  0  0
  8 17  1  0  0  0
  8 18  1  0  0  0
  9 10  2  0  0  0
  9 19  1  0  0  0
 10 11  1  0  0  0
 10 20  1  0  0  0
 11 12  1  0  0  0
 12 21  1  0  0  0
M  END
> <s_m_entry_id>
152

> <s_m_entry_name>
4FU9_chembl_27.1

> <s_pdb_PDB_TITLE>
CRYSTAL STRUCTURE OF THE UROKINASE

> <s_pdb_PDB_format_version>
3.30

> <s_m_Source_Path>
/Users/mmunicoy/Documents/NBD/Projects/JJ/urokinase

> <s_m_Source_File>
4FU9_chembl_27.pdb

> <i_m_Source_File_Index>
1

> <s_pdb_PDB_ID>
4FU9

> <r_pdb_PDB_CRYST1_a>
55.1

> <r_pdb_PDB_CRYST1_b>
52.4

> <r_pdb_PDB_CRYST1_c>
80.25

> <r_pdb_PDB_CRYST1_alpha>
90

> <r_pdb_PDB_CRYST1_beta>
90

> <r_pdb_PDB_CRYST1_gamma>
90

> <s_pdb_PDB_CRYST1_Space_Group>
P 21 21 21

> <i_pdb_PDB_CRYST1_z>
4

> <s_pdb_PDB_CLASSIFICATION>
HYDROLASE/HYDROLASE INHIBITOR

> <s_pdb_PDB_DEPOSITION_DATE>
28-JUN-12

> <r_pdb_PDB_R>
0.15

> <r_pdb_PDB_Rfree>
0.182

> <r_pdb_PDB_RESOLUTION>
1.6

> <s_pdb_PDB_EXPDTA>
X-RAY DIFFRACTION

> <r_pdb_PDB_EXPDTA_TEMPERATURE>
160

> <r_pdb_PDB_EXPDTA_PH>
4.8

> <s_pdb_PDB_REMARK_350_Biomolecule_1_Transform_1_Chains>
A

> <s_pdb_PDB_REMARK_350_Biomolecule_1_Transform_1_Matrix_1>
1.000000 0.000000 0.000000   0.000000;0.000000 1.000000 0.000000   0.000000;0.000000 0.000000 1.000000   0.000000

> <s_m_subgroup_title>
ligands

> <s_m_subgroupid>
ligands1

> <b_m_subgroup_collapsed>
0

$$$$
chembl_28
                    3D
 Schrodinger Suite 2021-4.
 38 39  0  0  1  0            999 V2000
   -2.1060  -14.7130    7.1010 C   0  0  0  0  0  0
   -2.9640  -15.7070    6.5550 O   0  0  0  0  0  0
   -4.1830  -15.9610    7.1500 C   0  0  0  0  0  0
   -4.6120  -15.2190    8.2780 C   0  0  0  0  0  0
   -5.8760  -15.4310    8.8410 C   0  0  0  0  0  0
   -6.7340  -16.4000    8.3010 C   0  0  0  0  0  0
   -8.0060  -16.5740    8.8730 C   0  0  0  0  0  0
   -8.8460  -17.6010    8.4230 C   0  0  0  0  0  0
   -8.4300  -18.4580    7.3820 C   0  0  0  0  0  0
   -9.3240  -19.5510    6.9750 C   0  0  0  0  0  0
   -8.9070  -20.7050    6.4590 N   0  3  0  0  0  0
  -10.6420  -19.4310    7.1010 N   0  0  0  0  0  0
   -7.1790  -18.2310    6.7530 C   0  0  0  0  0  0
   -6.3150  -17.1990    7.2090 C   0  0  0  0  0  0
   -5.0440  -16.9670    6.6100 C   0  0  0  0  0  0
   -4.7560  -17.7130    5.4810 O   0  0  0  0  0  0
   -3.4110  -18.0440    5.1490 C   0  0  0  0  0  0
   -3.4420  -19.0310    3.9770 C   0  0  0  0  0  0
   -3.7780  -18.3460    2.6430 C   0  0  0  0  0  0
   -2.1760  -17.4310    1.9010 Br  0  0  0  0  0  0
   -1.1960  -14.6510    6.5050 H   0  0  0  0  0  0
   -2.6130  -13.7480    7.0900 H   0  0  0  0  0  0
   -1.8500  -14.9770    8.1270 H   0  0  0  0  0  0
   -3.9610  -14.4780    8.7170 H   0  0  0  0  0  0
   -6.1930  -14.8470    9.6930 H   0  0  0  0  0  0
   -8.3380  -15.9150    9.6620 H   0  0  0  0  0  0
   -9.8180  -17.7410    8.8740 H   0  0  0  0  0  0
   -9.5780  -21.4140    6.2010 H   0  0  0  0  0  0
   -7.9200  -20.8710    6.3260 H   0  0  0  0  0  0
  -11.2480  -20.1880    6.8180 H   0  0  0  0  0  0
  -11.0380  -18.5820    7.4800 H   0  0  0  0  0  0
   -6.8740  -18.8460    5.9190 H   0  0  0  0  0  0
   -2.9300  -18.5140    6.0070 H   0  0  0  0  0  0
   -2.8790  -17.1410    4.8490 H   0  0  0  0  0  0
   -4.1770  -19.8100    4.1790 H   0  0  0  0  0  0
   -2.4750  -19.5280    3.8960 H   0  0  0  0  0  0
   -4.5730  -17.6170    2.7990 H   0  0  0  0  0  0
   -4.1320  -19.0920    1.9310 H   0  0  0  0  0  0
  1  2  1  0  0  0
  1 21  1  0  0  0
  1 22  1  0  0  0
  1 23  1  0  0  0
  2  3  1  0  0  0
  3 15  2  0  0  0
  3  4  1  0  0  0
  4  5  2  0  0  0
  4 24  1  0  0  0
  5  6  1  0  0  0
  5 25  1  0  0  0
  6 14  2  0  0  0
  6  7  1  0  0  0
  7  8  2  0  0  0
  7 26  1  0  0  0
  8  9  1  0  0  0
  8 27  1  0  0  0
  9 10  1  0  0  0
  9 13  2  0  0  0
 10 11  2  0  0  0
 10 12  1  0  0  0
 11 28  1  0  0  0
 11 29  1  0  0  0
 12 30  1  0  0  0
 12 31  1  0  0  0
 13 14  1  0  0  0
 13 32  1  0  0  0
 14 15  1  0  0  0
 15 16  1  0  0  0
 16 17  1  0  0  0
 17 18  1  0  0  0
 17 33  1  0  0  0
 17 34  1  0  0  0
 18 19  1  0  0  0
 18 35  1  0  0  0
 18 36  1  0  0  0
 19 20  1  0  0  0
 19 37  1  0  0  0
 19 38  1  0  0  0
M  CHG  1  11   1
M  END
> <s_m_entry_id>
153

> <s_m_entry_name>
4FU9_chembl_28.1

> <s_pdb_PDB_TITLE>
CRYSTAL STRUCTURE OF THE UROKINASE

> <s_pdb_PDB_format_version>
3.30

> <s_m_Source_Path>
/Users/mmunicoy/Documents/NBD/Projects/JJ/urokinase

> <s_m_Source_File>
4FU9_chembl_28.pdb

> <i_m_Source_File_Index>
1

> <s_pdb_PDB_ID>
4FU9

> <r_pdb_PDB_CRYST1_a>
55.1

> <r_pdb_PDB_CRYST1_b>
52.4

> <r_pdb_PDB_CRYST1_c>
80.25

> <r_pdb_PDB_CRYST1_alpha>
90

> <r_pdb_PDB_CRYST1_beta>
90

> <r_pdb_PDB_CRYST1_gamma>
90

> <s_pdb_PDB_CRYST1_Space_Group>
P 21 21 21

> <i_pdb_PDB_CRYST1_z>
4

> <s_pdb_PDB_CLASSIFICATION>
HYDROLASE/HYDROLASE INHIBITOR

> <s_pdb_PDB_DEPOSITION_DATE>
28-JUN-12

> <r_pdb_PDB_R>
0.15

> <r_pdb_PDB_Rfree>
0.182

> <r_pdb_PDB_RESOLUTION>
1.6

> <s_pdb_PDB_EXPDTA>
X-RAY DIFFRACTION

> <r_pdb_PDB_EXPDTA_TEMPERATURE>
160

> <r_pdb_PDB_EXPDTA_PH>
4.8

> <s_pdb_PDB_REMARK_350_Biomolecule_1_Transform_1_Chains>
A

> <s_pdb_PDB_REMARK_350_Biomolecule_1_Transform_1_Matrix_1>
1.000000 0.000000 0.000000   0.000000;0.000000 1.000000 0.000000   0.000000;0.000000 0.000000 1.000000   0.000000

> <s_m_subgroup_title>
ligands

> <s_m_subgroupid>
ligands1

> <b_m_subgroup_collapsed>
0

$$$$
chembl_29
                    3D
 Schrodinger Suite 2021-4.
 30 32  0  0  1  0            999 V2000
   -9.0370  -20.4420    6.7010 N   0  0  0  0  0  0
   -8.5620  -19.2160    7.1390 C   0  0  0  0  0  0
   -9.4450  -18.2660    7.6650 C   0  0  0  0  0  0
   -8.9170  -17.0790    8.1910 C   0  0  0  0  0  0
   -7.5230  -16.8990    8.1780 C   0  0  0  0  0  0
   -6.9700  -15.7560    8.7730 C   0  0  0  0  0  0
   -5.5770  -15.5810    8.7980 C   0  0  0  0  0  0
   -5.0420  -14.5130    9.4460 O   0  0  0  0  0  0
   -4.7410  -16.5280    8.1880 C   0  0  0  0  0  0
   -5.2910  -17.6840    7.6030 C   0  0  0  0  0  0
   -4.4100  -18.6450    7.1010 N   0  0  0  0  0  0
   -3.6540  -18.7000    5.9580 C   0  0  0  0  0  0
   -2.7900  -19.7140    5.8800 N   0  0  0  0  0  0
   -2.0300  -19.7720    4.7680 C   0  0  0  0  0  0
   -2.1630  -18.8440    3.7220 C   0  0  0  0  0  0
   -3.1140  -17.8290    3.9200 C   0  0  0  0  0  0
   -3.8430  -17.7440    5.0490 N   0  0  0  0  0  0
   -6.6940  -17.8970    7.6000 C   0  0  0  0  0  0
   -7.2300  -19.0310    7.1010 N   0  0  0  0  0  0
  -10.0290  -20.6320    6.7090 H   0  0  0  0  0  0
   -8.3900  -21.1460    6.3730 H   0  0  0  0  0  0
  -10.5080  -18.4560    7.6600 H   0  0  0  0  0  0
   -9.5780  -16.3270    8.5940 H   0  0  0  0  0  0
   -7.6150  -15.0090    9.2130 H   0  0  0  0  0  0
   -4.0850  -14.5390    9.3700 H   0  0  0  0  0  0
   -3.6730  -16.3700    8.1670 H   0  0  0  0  0  0
   -4.2400  -19.4950    7.6200 H   0  0  0  0  0  0
   -1.2890  -20.5500    4.6610 H   0  0  0  0  0  0
   -1.5540  -18.9380    2.8360 H   0  0  0  0  0  0
   -3.2780  -17.0860    3.1530 H   0  0  0  0  0  0
  1  2  1  0  0  0
  1 20  1  0  0  0
  1 21  1  0  0  0
  2 19  2  0  0  0
  2  3  1  0  0  0
  3  4  2  0  0  0
  3 22  1  0  0  0
  4  5  1  0  0  0
  4 23  1  0  0  0
  5 18  2  0  0  0
  5  6  1  0  0  0
  6  7  2  0  0  0
  6 24  1  0  0  0
  7  8  1  0  0  0
  7  9  1  0  0  0
  8 25  1  0  0  0
  9 10  2  0  0  0
  9 26  1  0  0  0
 10 11  1  0  0  0
 10 18  1  0  0  0
 11 12  1  0  0  0
 11 27  1  0  0  0
 12 17  2  0  0  0
 12 13  1  0  0  0
 13 14  2  0  0  0
 14 15  1  0  0  0
 14 28  1  0  0  0
 15 16  2  0  0  0
 15 29  1  0  0  0
 16 17  1  0  0  0
 16 30  1  0  0  0
 18 19  1  0  0  0
M  END
> <s_m_entry_id>
154

> <s_m_entry_name>
4FU9_chembl_29.1

> <s_pdb_PDB_TITLE>
CRYSTAL STRUCTURE OF THE UROKINASE

> <s_pdb_PDB_format_version>
3.30

> <s_m_Source_Path>
/Users/mmunicoy/Documents/NBD/Projects/JJ/urokinase

> <s_m_Source_File>
4FU9_chembl_29.pdb

> <i_m_Source_File_Index>
1

> <s_pdb_PDB_ID>
4FU9

> <r_pdb_PDB_CRYST1_a>
55.1

> <r_pdb_PDB_CRYST1_b>
52.4

> <r_pdb_PDB_CRYST1_c>
80.25

> <r_pdb_PDB_CRYST1_alpha>
90

> <r_pdb_PDB_CRYST1_beta>
90

> <r_pdb_PDB_CRYST1_gamma>
90

> <s_pdb_PDB_CRYST1_Space_Group>
P 21 21 21

> <i_pdb_PDB_CRYST1_z>
4

> <s_pdb_PDB_CLASSIFICATION>
HYDROLASE/HYDROLASE INHIBITOR

> <s_pdb_PDB_DEPOSITION_DATE>
28-JUN-12

> <r_pdb_PDB_R>
0.15

> <r_pdb_PDB_Rfree>
0.182

> <r_pdb_PDB_RESOLUTION>
1.6

> <s_pdb_PDB_EXPDTA>
X-RAY DIFFRACTION

> <r_pdb_PDB_EXPDTA_TEMPERATURE>
160

> <r_pdb_PDB_EXPDTA_PH>
4.8

> <s_pdb_PDB_REMARK_350_Biomolecule_1_Transform_1_Chains>
A

> <s_pdb_PDB_REMARK_350_Biomolecule_1_Transform_1_Matrix_1>
1.000000 0.000000 0.000000   0.000000;0.000000 1.000000 0.000000   0.000000;0.000000 0.000000 1.000000   0.000000

> <s_m_subgroup_title>
ligands

> <s_m_subgroupid>
ligands1

> <b_m_subgroup_collapsed>
0

$$$$
chembl_30
                    3D
 Schrodinger Suite 2021-4.
 19 20  0  0  1  0            999 V2000
   -9.1460  -19.8360    6.2850 C   0  0  0  0  0  0
   -7.8680  -19.4310    6.3970 N   0  3  0  0  0  0
   -7.5730  -18.2260    7.1010 C   0  0  0  0  0  0
   -6.3480  -17.5640    6.8980 C   0  0  0  0  0  0
   -6.0730  -16.3960    7.6370 C   0  0  0  0  0  0
   -7.0160  -15.9100    8.5660 C   0  0  0  0  0  0
   -8.2420  -16.5810    8.7480 C   0  0  0  0  0  0
   -8.5310  -17.7420    8.0090 C   0  0  0  0  0  0
   -9.8420  -18.4770    8.2040 C   0  0  0  0  0  0
  -10.1210  -19.4080    7.1010 N   0  0  0  0  0  0
   -9.3720  -20.5380    5.4950 H   0  0  0  0  0  0
   -7.1260  -19.9790    5.9850 H   0  0  0  0  0  0
   -5.6360  -17.9520    6.1850 H   0  0  0  0  0  0
   -5.1390  -15.8730    7.4910 H   0  0  0  0  0  0
   -6.7990  -15.0220    9.1410 H   0  0  0  0  0  0
   -8.9630  -16.2030    9.4580 H   0  0  0  0  0  0
  -10.6550  -17.7550    8.2820 H   0  0  0  0  0  0
   -9.8130  -19.0280    9.1440 H   0  0  0  0  0  0
  -11.0700  -19.7260    6.9640 H   0  0  0  0  0  0
  1 10  1  0  0  0
  1  2  2  0  0  0
  1 11  1  0  0  0
  2  3  1  0  0  0
  2 12  1  0  0  0
  3  8  2  0  0  0
  3  4  1  0  0  0
  4  5  2  0  0  0
  4 13  1  0  0  0
  5  6  1  0  0  0
  5 14  1  0  0  0
  6  7  2  0  0  0
  6 15  1  0  0  0
  7  8  1  0  0  0
  7 16  1  0  0  0
  8  9  1  0  0  0
  9 10  1  0  0  0
  9 17  1  0  0  0
  9 18  1  0  0  0
 10 19  1  0  0  0
M  CHG  1   2   1
M  END
> <s_m_entry_id>
155

> <s_m_entry_name>
4FU9_chembl_30.1

> <s_pdb_PDB_TITLE>
CRYSTAL STRUCTURE OF THE UROKINASE

> <s_pdb_PDB_format_version>
3.30

> <s_m_Source_Path>
/Users/mmunicoy/Documents/NBD/Projects/JJ/urokinase

> <s_m_Source_File>
4FU9_chembl_30.pdb

> <i_m_Source_File_Index>
1

> <s_pdb_PDB_ID>
4FU9

> <r_pdb_PDB_CRYST1_a>
55.1

> <r_pdb_PDB_CRYST1_b>
52.4

> <r_pdb_PDB_CRYST1_c>
80.25

> <r_pdb_PDB_CRYST1_alpha>
90

> <r_pdb_PDB_CRYST1_beta>
90

> <r_pdb_PDB_CRYST1_gamma>
90

> <s_pdb_PDB_CRYST1_Space_Group>
P 21 21 21

> <i_pdb_PDB_CRYST1_z>
4

> <s_pdb_PDB_CLASSIFICATION>
HYDROLASE/HYDROLASE INHIBITOR

> <s_pdb_PDB_DEPOSITION_DATE>
28-JUN-12

> <r_pdb_PDB_R>
0.15

> <r_pdb_PDB_Rfree>
0.182

> <r_pdb_PDB_RESOLUTION>
1.6

> <s_pdb_PDB_EXPDTA>
X-RAY DIFFRACTION

> <r_pdb_PDB_EXPDTA_TEMPERATURE>
160

> <r_pdb_PDB_EXPDTA_PH>
4.8

> <s_pdb_PDB_REMARK_350_Biomolecule_1_Transform_1_Chains>
A

> <s_pdb_PDB_REMARK_350_Biomolecule_1_Transform_1_Matrix_1>
1.000000 0.000000 0.000000   0.000000;0.000000 1.000000 0.000000   0.000000;0.000000 0.000000 1.000000   0.000000

> <s_m_subgroup_title>
ligands

> <s_m_subgroupid>
ligands1

> <b_m_subgroup_collapsed>
0

$$$$
chembl_32
                    3D
 Schrodinger Suite 2021-4.
 41 44  0  0  1  0            999 V2000
   -9.0280  -20.9350    6.7010 N   0  3  0  0  0  0
   -9.3490  -19.6980    7.0820 C   0  0  0  0  0  0
  -10.6420  -19.4310    7.1010 N   0  0  0  0  0  0
   -8.3750  -18.6480    7.3930 C   0  0  0  0  0  0
   -8.6900  -17.6100    8.3010 C   0  0  0  0  0  0
   -7.7640  -16.5760    8.5460 C   0  0  0  0  0  0
   -6.5090  -16.5830    7.9030 C   0  0  0  0  0  0
   -5.5740  -15.5570    8.1410 C   0  0  0  0  0  0
   -4.3130  -15.5710    7.5010 C   0  0  0  0  0  0
   -3.3290  -14.4540    7.6710 C   0  0  2  0  0  0
   -2.2230  -14.4790    8.7000 C   0  0  0  0  0  0
   -3.3790  -13.5140    8.8500 C   0  0  1  0  0  0
   -3.2730  -12.0400    8.6100 C   0  0  0  0  0  0
   -2.1830  -11.2920    9.1010 C   0  0  0  0  0  0
   -2.1270   -9.8980    8.9040 C   0  0  0  0  0  0
   -3.1590   -9.2430    8.2040 C   0  0  0  0  0  0
   -4.2420   -9.9840    7.6970 C   0  0  0  0  0  0
   -4.2970  -11.3760    7.9010 C   0  0  0  0  0  0
   -3.9970  -16.6320    6.6280 C   0  0  0  0  0  0
   -4.9310  -17.6520    6.3710 C   0  0  0  0  0  0
   -6.1870  -17.6270    7.0040 C   0  0  0  0  0  0
   -7.1280  -18.6370    6.7400 C   0  0  0  0  0  0
   -8.0590  -21.2160    6.6610 H   0  0  0  0  0  0
   -9.7550  -21.5910    6.4520 H   0  0  0  0  0  0
  -10.9650  -18.5150    7.3790 H   0  0  0  0  0  0
  -11.3080  -20.1430    6.8380 H   0  0  0  0  0  0
   -9.6430  -17.6070    8.8090 H   0  0  0  0  0  0
   -8.0150  -15.7760    9.2280 H   0  0  0  0  0  0
   -5.8170  -14.7510    8.8170 H   0  0  0  0  0  0
   -3.0470  -13.9710    6.7360 H   0  0  0  0  0  0
   -1.5120  -13.8190    8.2030 H   0  0  0  0  0  0
   -2.5930  -15.2890    9.3290 H   0  0  0  0  0  0
   -4.1010  -13.7930    9.6180 H   0  0  0  0  0  0
   -1.3840  -11.7870    9.6330 H   0  0  0  0  0  0
   -1.2930   -9.3310    9.2890 H   0  0  0  0  0  0
   -3.1170   -8.1740    8.0570 H   0  0  0  0  0  0
   -5.0300   -9.4850    7.1520 H   0  0  0  0  0  0
   -5.1330  -11.9370    7.5090 H   0  0  0  0  0  0
   -3.0300  -16.6660    6.1480 H   0  0  0  0  0  0
   -4.6820  -18.4520    5.6900 H   0  0  0  0  0  0
   -6.8840  -19.4120    6.0280 H   0  0  0  0  0  0
  1  2  2  0  0  0
  1 23  1  0  0  0
  1 24  1  0  0  0
  2  3  1  0  0  0
  2  4  1  0  0  0
  3 25  1  0  0  0
  3 26  1  0  0  0
  4 22  2  0  0  0
  4  5  1  0  0  0
  5  6  2  0  0  0
  5 27  1  0  0  0
  6  7  1  0  0  0
  6 28  1  0  0  0
  7 21  2  0  0  0
  7  8  1  0  0  0
  8  9  2  0  0  0
  8 29  1  0  0  0
  9 10  1  0  0  0
  9 19  1  0  0  0
 10 12  1  0  0  0
 10 11  1  0  0  0
 10 30  1  0  0  0
 11 12  1  0  0  0
 11 31  1  0  0  0
 11 32  1  0  0  0
 12 13  1  0  0  0
 12 33  1  0  0  0
 13 18  2  0  0  0
 13 14  1  0  0  0
 14 15  2  0  0  0
 14 34  1  0  0  0
 15 16  1  0  0  0
 15 35  1  0  0  0
 16 17  2  0  0  0
 16 36  1  0  0  0
 17 18  1  0  0  0
 17 37  1  0  0  0
 18 38  1  0  0  0
 19 20  2  0  0  0
 19 39  1  0  0  0
 20 21  1  0  0  0
 20 40  1  0  0  0
 21 22  1  0  0  0
 22 41  1  0  0  0
M  CHG  1   1   1
M  END
> <s_m_entry_id>
156

> <s_m_entry_name>
4FU9_chembl_32.1

> <s_pdb_PDB_TITLE>
CRYSTAL STRUCTURE OF THE UROKINASE

> <s_pdb_PDB_format_version>
3.30

> <s_m_Source_Path>
/Users/mmunicoy/Documents/NBD/Projects/JJ/urokinase

> <s_m_Source_File>
4FU9_chembl_32.pdb

> <i_m_Source_File_Index>
1

> <s_pdb_PDB_ID>
4FU9

> <r_pdb_PDB_CRYST1_a>
55.1

> <r_pdb_PDB_CRYST1_b>
52.4

> <r_pdb_PDB_CRYST1_c>
80.25

> <r_pdb_PDB_CRYST1_alpha>
90

> <r_pdb_PDB_CRYST1_beta>
90

> <r_pdb_PDB_CRYST1_gamma>
90

> <s_pdb_PDB_CRYST1_Space_Group>
P 21 21 21

> <i_pdb_PDB_CRYST1_z>
4

> <s_pdb_PDB_CLASSIFICATION>
HYDROLASE/HYDROLASE INHIBITOR

> <s_pdb_PDB_DEPOSITION_DATE>
28-JUN-12

> <r_pdb_PDB_R>
0.15

> <r_pdb_PDB_Rfree>
0.182

> <r_pdb_PDB_RESOLUTION>
1.6

> <s_pdb_PDB_EXPDTA>
X-RAY DIFFRACTION

> <r_pdb_PDB_EXPDTA_TEMPERATURE>
160

> <r_pdb_PDB_EXPDTA_PH>
4.8

> <s_pdb_PDB_REMARK_350_Biomolecule_1_Transform_1_Chains>
A

> <s_pdb_PDB_REMARK_350_Biomolecule_1_Transform_1_Matrix_1>
1.000000 0.000000 0.000000   0.000000;0.000000 1.000000 0.000000   0.000000;0.000000 0.000000 1.000000   0.000000

> <s_m_subgroup_title>
ligands

> <s_m_subgroupid>
ligands1

> <b_m_subgroup_collapsed>
0

$$$$
chembl_33
                    3D
 Schrodinger Suite 2021-4.
 54 56  0  0  1  0            999 V2000
    1.8470  -21.9760   10.2820 C   0  0  0  0  0  0
    1.6130  -20.5750   10.7010 N   0  3  0  0  0  0
    2.8400  -19.7470   10.6350 C   0  0  0  0  0  0
    0.4180  -19.9380   10.0890 C   0  0  0  0  0  0
    0.4760  -19.8200    8.5520 C   0  0  0  0  0  0
   -0.6340  -19.0170    8.0540 N   0  0  0  0  0  0
   -1.7020  -19.4410    7.3580 C   0  0  0  0  0  0
   -1.9110  -20.6310    7.0990 O   0  0  0  0  0  0
   -2.6280  -18.3230    6.8410 C   0  0  2  0  0  0
   -3.9590  -18.5240    7.3360 O   0  0  0  0  0  0
   -4.8150  -17.4430    7.4850 C   0  0  0  0  0  0
   -4.3600  -16.1170    7.7220 C   0  0  0  0  0  0
   -5.2660  -15.0610    7.9060 C   0  0  0  0  0  0
   -6.6420  -15.3160    7.8540 C   0  0  0  0  0  0
   -7.1050  -16.6090    7.6180 C   0  0  0  0  0  0
   -8.7820  -17.0890    7.5010 S   0  0  0  0  0  0
   -8.3160  -18.7290    7.1760 C   0  0  0  0  0  0
   -9.3490  -19.6900    6.8700 C   0  0  0  0  0  0
   -9.0420  -20.8560    6.3010 N   0  3  0  0  0  0
  -10.6420  -19.4310    7.1010 N   0  0  0  0  0  0
   -6.9540  -18.9340    7.2280 C   0  0  0  0  0  0
   -6.2140  -17.7110    7.4360 C   0  0  0  0  0  0
   -2.5540  -18.2590    5.3200 C   0  0  0  0  0  0
   -1.5540  -17.4830    4.6920 C   0  0  0  0  0  0
   -1.4410  -17.4670    3.2880 C   0  0  0  0  0  0
   -2.3270  -18.2260    2.5000 C   0  0  0  0  0  0
   -3.3260  -18.9980    3.1210 C   0  0  0  0  0  0
   -3.4420  -19.0130    4.5250 C   0  0  0  0  0  0
    0.9150  -22.5370   10.3500 H   0  0  0  0  0  0
    2.2060  -21.9930    9.2530 H   0  0  0  0  0  0
    2.5930  -22.4310   10.9340 H   0  0  0  0  0  0
    1.3960  -20.6350   11.6860 H   0  0  0  0  0  0
    2.6100  -18.7300   10.9530 H   0  0  0  0  0  0
    3.6000  -20.1690   11.2920 H   0  0  0  0  0  0
    3.2140  -19.7310    9.6110 H   0  0  0  0  0  0
    0.2750  -18.9480   10.5220 H   0  0  0  0  0  0
   -0.4750  -20.4950   10.3750 H   0  0  0  0  0  0
    0.4310  -20.8150    8.1100 H   0  0  0  0  0  0
    1.4180  -19.3580    8.2590 H   0  0  0  0  0  0
   -0.5380  -18.0390    8.2860 H   0  0  0  0  0  0
   -2.2620  -17.3750    7.2360 H   0  0  0  0  0  0
   -3.3020  -15.9080    7.7640 H   0  0  0  0  0  0
   -4.9010  -14.0610    8.0850 H   0  0  0  0  0  0
   -7.3460  -14.5100    7.9990 H   0  0  0  0  0  0
   -9.7710  -21.5220    6.0900 H   0  0  0  0  0  0
   -8.0800  -21.0720    6.0800 H   0  0  0  0  0  0
  -11.3430  -20.1220    6.8770 H   0  0  0  0  0  0
  -10.9160  -18.5440    7.4990 H   0  0  0  0  0  0
   -6.5530  -19.9300    7.1160 H   0  0  0  0  0  0
   -0.8700  -16.8990    5.2890 H   0  0  0  0  0  0
   -0.6740  -16.8710    2.8150 H   0  0  0  0  0  0
   -2.2390  -18.2140    1.4240 H   0  0  0  0  0  0
   -4.0080  -19.5830    2.5210 H   0  0  0  0  0  0
   -4.2140  -19.6050    4.9930 H   0  0  0  0  0  0
  1  2  1  0  0  0
  1 29  1  0  0  0
  1 30  1  0  0  0
  1 31  1  0  0  0
  2  3  1  0  0  0
  2  4  1  0  0  0
  2 32  1  0  0  0
  3 33  1  0  0  0
  3 34  1  0  0  0
  3 35  1  0  0  0
  4  5  1  0  0  0
  4 36  1  0  0  0
  4 37  1  0  0  0
  5  6  1  0  0  0
  5 38  1  0  0  0
  5 39  1  0  0  0
  6  7  1  0  0  0
  6 40  1  0  0  0
  7  8  2  0  0  0
  7  9  1  0  0  0
  9 10  1  0  0  0
  9 23  1  0  0  0
  9 41  1  0  0  0
 10 11  1  0  0  0
 11 22  2  0  0  0
 11 12  1  0  0  0
 12 13  2  0  0  0
 12 42  1  0  0  0
 13 14  1  0  0  0
 13 43  1  0  0  0
 14 15  2  0  0  0
 14 44  1  0  0  0
 15 22  1  0  0  0
 15 16  1  0  0  0
 16 17  1  0  0  0
 17 18  1  0  0  0
 17 21  2  0  0  0
 18 19  2  0  0  0
 18 20  1  0  0  0
 19 45  1  0  0  0
 19 46  1  0  0  0
 20 47  1  0  0  0
 20 48  1  0  0  0
 21 22  1  0  0  0
 21 49  1  0  0  0
 23 28  2  0  0  0
 23 24  1  0  0  0
 24 25  2  0  0  0
 24 50  1  0  0  0
 25 26  1  0  0  0
 25 51  1  0  0  0
 26 27  2  0  0  0
 26 52  1  0  0  0
 27 28  1  0  0  0
 27 53  1  0  0  0
 28 54  1  0  0  0
M  CHG  2   2   1  19   1
M  END
> <s_m_entry_id>
157

> <s_m_entry_name>
4FU9_chembl_33.1

> <s_pdb_PDB_TITLE>
CRYSTAL STRUCTURE OF THE UROKINASE

> <s_pdb_PDB_format_version>
3.30

> <s_m_Source_Path>
/Users/mmunicoy/Documents/NBD/Projects/JJ/urokinase

> <s_m_Source_File>
4FU9_chembl_33.pdb

> <i_m_Source_File_Index>
1

> <s_pdb_PDB_ID>
4FU9

> <r_pdb_PDB_CRYST1_a>
55.1

> <r_pdb_PDB_CRYST1_b>
52.4

> <r_pdb_PDB_CRYST1_c>
80.25

> <r_pdb_PDB_CRYST1_alpha>
90

> <r_pdb_PDB_CRYST1_beta>
90

> <r_pdb_PDB_CRYST1_gamma>
90

> <s_pdb_PDB_CRYST1_Space_Group>
P 21 21 21

> <i_pdb_PDB_CRYST1_z>
4

> <s_pdb_PDB_CLASSIFICATION>
HYDROLASE/HYDROLASE INHIBITOR

> <s_pdb_PDB_DEPOSITION_DATE>
28-JUN-12

> <r_pdb_PDB_R>
0.15

> <r_pdb_PDB_Rfree>
0.182

> <r_pdb_PDB_RESOLUTION>
1.6

> <s_pdb_PDB_EXPDTA>
X-RAY DIFFRACTION

> <r_pdb_PDB_EXPDTA_TEMPERATURE>
160

> <r_pdb_PDB_EXPDTA_PH>
4.8

> <s_pdb_PDB_REMARK_350_Biomolecule_1_Transform_1_Chains>
A

> <s_pdb_PDB_REMARK_350_Biomolecule_1_Transform_1_Matrix_1>
1.000000 0.000000 0.000000   0.000000;0.000000 1.000000 0.000000   0.000000;0.000000 0.000000 1.000000   0.000000

> <s_m_subgroup_title>
ligands

> <s_m_subgroupid>
ligands1

> <b_m_subgroup_collapsed>
0

$$$$
chembl_43
                    3D
 Schrodinger Suite 2021-4.
 36 38  0  0  1  0            999 V2000
   -5.2570   -9.8330    7.1010 N   0  0  0  0  0  0
   -4.4740  -10.8690    7.5840 C   0  0  0  0  0  0
   -3.2120  -10.6080    8.1450 C   0  0  0  0  0  0
   -2.4530  -11.6900    8.6270 C   0  0  0  0  0  0
   -2.9950  -12.9880    8.5380 C   0  0  0  0  0  0
   -2.2750  -14.1030    9.0140 C   0  0  0  0  0  0
   -2.8290  -15.3940    8.9190 C   0  0  0  0  0  0
   -4.1040  -15.5760    8.3450 C   0  0  0  0  0  0
   -4.7040  -16.9460    8.2270 C   0  0  0  0  0  0
   -4.5220  -17.8050    9.0900 O   0  0  0  0  0  0
   -5.4260  -17.1360    7.1110 N   0  0  0  0  0  0
   -6.2030  -18.3250    6.7860 C   0  0  0  0  0  0
   -7.6290  -18.3240    7.3230 C   0  0  0  0  0  0
   -8.5050  -19.3510    6.9090 C   0  0  0  0  0  0
   -9.8070  -19.4310    7.4290 C   0  0  0  0  0  0
  -10.2420  -18.4860    8.3740 C   0  0  0  0  0  0
   -9.3970  -17.4320    8.7600 C   0  0  0  0  0  0
   -8.0950  -17.3490    8.2380 C   0  0  0  0  0  0
   -4.8270  -14.4480    7.9010 C   0  0  0  0  0  0
   -4.2840  -13.1510    7.9650 C   0  0  0  0  0  0
   -5.0060  -12.1040    7.5010 N   0  0  0  0  0  0
   -4.9150   -8.8830    7.1350 H   0  0  0  0  0  0
   -6.1700  -10.0270    6.7150 H   0  0  0  0  0  0
   -2.8440   -9.5940    8.1980 H   0  0  0  0  0  0
   -1.4760  -11.5170    9.0540 H   0  0  0  0  0  0
   -1.2970  -13.9670    9.4510 H   0  0  0  0  0  0
   -2.2770  -16.2470    9.2860 H   0  0  0  0  0  0
   -5.4630  -16.4150    6.4050 H   0  0  0  0  0  0
   -5.6800  -19.2090    7.1520 H   0  0  0  0  0  0
   -6.2260  -18.4570    5.7040 H   0  0  0  0  0  0
   -8.1750  -20.0830    6.1870 H   0  0  0  0  0  0
  -10.4710  -20.2170    7.1030 H   0  0  0  0  0  0
  -11.2280  -18.5700    8.8070 H   0  0  0  0  0  0
   -9.7480  -16.6850    9.4570 H   0  0  0  0  0  0
   -7.4480  -16.5370    8.5360 H   0  0  0  0  0  0
   -5.8220  -14.5690    7.4990 H   0  0  0  0  0  0
  1  2  1  0  0  0
  1 22  1  0  0  0
  1 23  1  0  0  0
  2 21  2  0  0  0
  2  3  1  0  0  0
  3  4  2  0  0  0
  3 24  1  0  0  0
  4  5  1  0  0  0
  4 25  1  0  0  0
  5 20  2  0  0  0
  5  6  1  0  0  0
  6  7  2  0  0  0
  6 26  1  0  0  0
  7  8  1  0  0  0
  7 27  1  0  0  0
  8  9  1  0  0  0
  8 19  2  0  0  0
  9 10  2  0  0  0
  9 11  1  0  0  0
 11 12  1  0  0  0
 11 28  1  0  0  0
 12 13  1  0  0  0
 12 29  1  0  0  0
 12 30  1  0  0  0
 13 18  2  0  0  0
 13 14  1  0  0  0
 14 15  2  0  0  0
 14 31  1  0  0  0
 15 16  1  0  0  0
 15 32  1  0  0  0
 16 17  2  0  0  0
 16 33  1  0  0  0
 17 18  1  0  0  0
 17 34  1  0  0  0
 18 35  1  0  0  0
 19 20  1  0  0  0
 19 36  1  0  0  0
 20 21  1  0  0  0
M  END
> <s_m_entry_id>
158

> <s_m_entry_name>
4FU9_chembl_43.1

> <s_pdb_PDB_TITLE>
CRYSTAL STRUCTURE OF THE UROKINASE

> <s_pdb_PDB_format_version>
3.30

> <s_m_Source_Path>
/Users/mmunicoy/Documents/NBD/Projects/JJ/urokinase

> <s_m_Source_File>
4FU9_chembl_43.pdb

> <i_m_Source_File_Index>
1

> <s_pdb_PDB_ID>
4FU9

> <r_pdb_PDB_CRYST1_a>
55.1

> <r_pdb_PDB_CRYST1_b>
52.4

> <r_pdb_PDB_CRYST1_c>
80.25

> <r_pdb_PDB_CRYST1_alpha>
90

> <r_pdb_PDB_CRYST1_beta>
90

> <r_pdb_PDB_CRYST1_gamma>
90

> <s_pdb_PDB_CRYST1_Space_Group>
P 21 21 21

> <i_pdb_PDB_CRYST1_z>
4

> <s_pdb_PDB_CLASSIFICATION>
HYDROLASE/HYDROLASE INHIBITOR

> <s_pdb_PDB_DEPOSITION_DATE>
28-JUN-12

> <r_pdb_PDB_R>
0.15

> <r_pdb_PDB_Rfree>
0.182

> <r_pdb_PDB_RESOLUTION>
1.6

> <s_pdb_PDB_EXPDTA>
X-RAY DIFFRACTION

> <r_pdb_PDB_EXPDTA_TEMPERATURE>
160

> <r_pdb_PDB_EXPDTA_PH>
4.8

> <s_pdb_PDB_REMARK_350_Biomolecule_1_Transform_1_Chains>
A

> <s_pdb_PDB_REMARK_350_Biomolecule_1_Transform_1_Matrix_1>
1.000000 0.000000 0.000000   0.000000;0.000000 1.000000 0.000000   0.000000;0.000000 0.000000 1.000000   0.000000

> <s_m_subgroup_title>
ligands

> <s_m_subgroupid>
ligands1

> <b_m_subgroup_collapsed>
0

$$$$
chembl_45
                    3D
 Schrodinger Suite 2021-4.
 35 37  0  0  1  0            999 V2000
   -1.8960  -14.7460    7.1230 C   0  0  0  0  0  0
   -2.7300  -15.8010    6.6660 O   0  0  0  0  0  0
   -3.9880  -15.9420    7.2210 C   0  0  0  0  0  0
   -4.4790  -15.0930    8.2370 C   0  0  0  0  0  0
   -5.7650  -15.2890    8.7550 C   0  0  0  0  0  0
   -6.5880  -16.3120    8.2570 C   0  0  0  0  0  0
   -7.8870  -16.4410    8.7750 C   0  0  0  0  0  0
   -8.7080  -17.4990    8.3600 C   0  0  0  0  0  0
   -8.2430  -18.4330    7.4090 C   0  0  0  0  0  0
   -9.1180  -19.5590    7.0460 C   0  0  0  0  0  0
  -10.4490  -19.4310    7.1010 N   0  3  0  0  0  0
   -8.6420  -20.7470    6.6610 N   0  0  0  0  0  0
   -6.9510  -18.2660    6.8440 C   0  0  0  0  0  0
   -6.1080  -17.2040    7.2650 C   0  0  0  0  0  0
   -4.7970  -17.0050    6.7460 C   0  0  0  0  0  0
   -4.1930  -17.8780    5.7540 C   0  0  0  0  0  0
   -3.4790  -19.0370    5.8640 C   0  0  0  0  0  0
   -2.9660  -19.3090    4.5650 C   0  0  0  0  0  0
   -3.4420  -18.3180    3.7550 C   0  0  0  0  0  0
   -4.1920  -17.4340    4.4670 O   0  0  0  0  0  0
   -0.9470  -14.7740    6.5880 H   0  0  0  0  0  0
   -2.3870  -13.7900    6.9400 H   0  0  0  0  0  0
   -1.7150  -14.8620    8.1910 H   0  0  0  0  0  0
   -3.8620  -14.2910    8.6150 H   0  0  0  0  0  0
   -6.1320  -14.6510    9.5450 H   0  0  0  0  0  0
   -8.2560  -15.7240    9.4940 H   0  0  0  0  0  0
   -9.7030  -17.6020    8.7670 H   0  0  0  0  0  0
  -11.0420  -20.2090    6.8500 H   0  0  0  0  0  0
  -10.8600  -18.5560    7.3940 H   0  0  0  0  0  0
   -9.2800  -21.4920    6.4200 H   0  0  0  0  0  0
   -7.6450  -20.8990    6.6100 H   0  0  0  0  0  0
   -6.6010  -18.9510    6.0850 H   0  0  0  0  0  0
   -3.4050  -19.5380    6.8180 H   0  0  0  0  0  0
   -2.3360  -20.1710    4.4020 H   0  0  0  0  0  0
   -3.2000  -18.3180    2.7020 H   0  0  0  0  0  0
  1  2  1  0  0  0
  1 21  1  0  0  0
  1 22  1  0  0  0
  1 23  1  0  0  0
  2  3  1  0  0  0
  3 15  2  0  0  0
  3  4  1  0  0  0
  4  5  2  0  0  0
  4 24  1  0  0  0
  5  6  1  0  0  0
  5 25  1  0  0  0
  6 14  2  0  0  0
  6  7  1  0  0  0
  7  8  2  0  0  0
  7 26  1  0  0  0
  8  9  1  0  0  0
  8 27  1  0  0  0
  9 10  1  0  0  0
  9 13  2  0  0  0
 10 11  2  0  0  0
 10 12  1  0  0  0
 11 28  1  0  0  0
 11 29  1  0  0  0
 12 30  1  0  0  0
 12 31  1  0  0  0
 13 14  1  0  0  0
 13 32  1  0  0  0
 14 15  1  0  0  0
 15 16  1  0  0  0
 16 20  1  0  0  0
 16 17  2  0  0  0
 17 18  1  0  0  0
 17 33  1  0  0  0
 18 19  2  0  0  0
 18 34  1  0  0  0
 19 20  1  0  0  0
 19 35  1  0  0  0
M  CHG  1  11   1
M  END
> <s_m_entry_id>
159

> <s_m_entry_name>
4FU9_chembl_45.1

> <s_pdb_PDB_TITLE>
CRYSTAL STRUCTURE OF THE UROKINASE

> <s_pdb_PDB_format_version>
3.30

> <s_m_Source_Path>
/Users/mmunicoy/Documents/NBD/Projects/JJ/urokinase

> <s_m_Source_File>
4FU9_chembl_45.pdb

> <i_m_Source_File_Index>
1

> <s_pdb_PDB_ID>
4FU9

> <r_pdb_PDB_CRYST1_a>
55.1

> <r_pdb_PDB_CRYST1_b>
52.4

> <r_pdb_PDB_CRYST1_c>
80.25

> <r_pdb_PDB_CRYST1_alpha>
90

> <r_pdb_PDB_CRYST1_beta>
90

> <r_pdb_PDB_CRYST1_gamma>
90

> <s_pdb_PDB_CRYST1_Space_Group>
P 21 21 21

> <i_pdb_PDB_CRYST1_z>
4

> <s_pdb_PDB_CLASSIFICATION>
HYDROLASE/HYDROLASE INHIBITOR

> <s_pdb_PDB_DEPOSITION_DATE>
28-JUN-12

> <r_pdb_PDB_R>
0.15

> <r_pdb_PDB_Rfree>
0.182

> <r_pdb_PDB_RESOLUTION>
1.6

> <s_pdb_PDB_EXPDTA>
X-RAY DIFFRACTION

> <r_pdb_PDB_EXPDTA_TEMPERATURE>
160

> <r_pdb_PDB_EXPDTA_PH>
4.8

> <s_pdb_PDB_REMARK_350_Biomolecule_1_Transform_1_Chains>
A

> <s_pdb_PDB_REMARK_350_Biomolecule_1_Transform_1_Matrix_1>
1.000000 0.000000 0.000000   0.000000;0.000000 1.000000 0.000000   0.000000;0.000000 0.000000 1.000000   0.000000

> <s_m_subgroup_title>
ligands

> <s_m_subgroupid>
ligands1

> <b_m_subgroup_collapsed>
0

$$$$
chembl_46
                    3D
 Schrodinger Suite 2021-4.
 40 42  0  0  1  0            999 V2000
  -10.6420  -19.4310    7.1010 N   0  3  0  0  0  0
   -9.3390  -19.6670    7.1010 C   0  0  0  0  0  0
   -8.9860  -20.8890    6.7010 N   0  0  0  0  0  0
   -8.3900  -18.6140    7.4880 C   0  0  0  0  0  0
   -8.8140  -17.5510    8.3200 C   0  0  0  0  0  0
   -7.9140  -16.5390    8.7010 C   0  0  0  0  0  0
   -6.5760  -16.5860    8.2700 C   0  0  0  0  0  0
   -5.6600  -15.6060    8.7000 C   0  0  0  0  0  0
   -4.3130  -15.6610    8.2860 C   0  0  0  0  0  0
   -3.3330  -14.6130    8.7870 C   0  0  0  0  0  0
   -3.0230  -14.7240   10.2930 C   0  0  0  0  0  0
   -2.4070  -16.0520   10.7010 C   0  0  0  0  0  0
   -1.0040  -16.2060   10.7010 C   0  0  0  0  0  0
   -0.4230  -17.4250   11.1020 C   0  0  0  0  0  0
   -1.2420  -18.4990   11.5010 C   0  0  0  0  0  0
   -2.6420  -18.3530   11.4960 C   0  0  0  0  0  0
   -3.2240  -17.1320   11.1010 C   0  0  0  0  0  0
   -3.8900  -16.6930    7.4220 C   0  0  0  0  0  0
   -4.8040  -17.6750    6.9890 C   0  0  0  0  0  0
   -6.1460  -17.6320    7.4190 C   0  0  0  0  0  0
   -7.0570  -18.6310    7.0210 C   0  0  0  0  0  0
  -10.9920  -18.5290    7.3910 H   0  0  0  0  0  0
  -11.2860  -20.1530    6.8110 H   0  0  0  0  0  0
   -8.0100  -21.1480    6.6720 H   0  0  0  0  0  0
   -9.6940  -21.5540    6.4270 H   0  0  0  0  0  0
   -9.8360  -17.5120    8.6680 H   0  0  0  0  0  0
   -8.2510  -15.7240    9.3250 H   0  0  0  0  0  0
   -5.9880  -14.8080    9.3490 H   0  0  0  0  0  0
   -3.7230  -13.6190    8.5700 H   0  0  0  0  0  0
   -2.4040  -14.6870    8.2210 H   0  0  0  0  0  0
   -3.9380  -14.5590   10.8630 H   0  0  0  0  0  0
   -2.3580  -13.9120   10.5860 H   0  0  0  0  0  0
   -0.3720  -15.3870   10.3930 H   0  0  0  0  0  0
    0.6510  -17.5360   11.1040 H   0  0  0  0  0  0
   -0.7950  -19.4320   11.8100 H   0  0  0  0  0  0
   -3.2720  -19.1770   11.7960 H   0  0  0  0  0  0
   -4.2980  -17.0230   11.1050 H   0  0  0  0  0  0
   -2.8630  -16.7330    7.0900 H   0  0  0  0  0  0
   -4.4770  -18.4620    6.3260 H   0  0  0  0  0  0
   -6.7290  -19.4140    6.3540 H   0  0  0  0  0  0
  1  2  2  0  0  0
  1 22  1  0  0  0
  1 23  1  0  0  0
  2  3  1  0  0  0
  2  4  1  0  0  0
  3 24  1  0  0  0
  3 25  1  0  0  0
  4 21  2  0  0  0
  4  5  1  0  0  0
  5  6  2  0  0  0
  5 26  1  0  0  0
  6  7  1  0  0  0
  6 27  1  0  0  0
  7 20  2  0  0  0
  7  8  1  0  0  0
  8  9  2  0  0  0
  8 28  1  0  0  0
  9 10  1  0  0  0
  9 18  1  0  0  0
 10 11  1  0  0  0
 10 29  1  0  0  0
 10 30  1  0  0  0
 11 12  1  0  0  0
 11 31  1  0  0  0
 11 32  1  0  0  0
 12 17  2  0  0  0
 12 13  1  0  0  0
 13 14  2  0  0  0
 13 33  1  0  0  0
 14 15  1  0  0  0
 14 34  1  0  0  0
 15 16  2  0  0  0
 15 35  1  0  0  0
 16 17  1  0  0  0
 16 36  1  0  0  0
 17 37  1  0  0  0
 18 19  2  0  0  0
 18 38  1  0  0  0
 19 20  1  0  0  0
 19 39  1  0  0  0
 20 21  1  0  0  0
 21 40  1  0  0  0
M  CHG  1   1   1
M  END
> <s_m_entry_id>
160

> <s_m_entry_name>
4FU9_chembl_46.1

> <s_pdb_PDB_TITLE>
CRYSTAL STRUCTURE OF THE UROKINASE

> <s_pdb_PDB_format_version>
3.30

> <s_m_Source_Path>
/Users/mmunicoy/Documents/NBD/Projects/JJ/urokinase

> <s_m_Source_File>
4FU9_chembl_46.pdb

> <i_m_Source_File_Index>
1

> <s_pdb_PDB_ID>
4FU9

> <r_pdb_PDB_CRYST1_a>
55.1

> <r_pdb_PDB_CRYST1_b>
52.4

> <r_pdb_PDB_CRYST1_c>
80.25

> <r_pdb_PDB_CRYST1_alpha>
90

> <r_pdb_PDB_CRYST1_beta>
90

> <r_pdb_PDB_CRYST1_gamma>
90

> <s_pdb_PDB_CRYST1_Space_Group>
P 21 21 21

> <i_pdb_PDB_CRYST1_z>
4

> <s_pdb_PDB_CLASSIFICATION>
HYDROLASE/HYDROLASE INHIBITOR

> <s_pdb_PDB_DEPOSITION_DATE>
28-JUN-12

> <r_pdb_PDB_R>
0.15

> <r_pdb_PDB_Rfree>
0.182

> <r_pdb_PDB_RESOLUTION>
1.6

> <s_pdb_PDB_EXPDTA>
X-RAY DIFFRACTION

> <r_pdb_PDB_EXPDTA_TEMPERATURE>
160

> <r_pdb_PDB_EXPDTA_PH>
4.8

> <s_pdb_PDB_REMARK_350_Biomolecule_1_Transform_1_Chains>
A

> <s_pdb_PDB_REMARK_350_Biomolecule_1_Transform_1_Matrix_1>
1.000000 0.000000 0.000000   0.000000;0.000000 1.000000 0.000000   0.000000;0.000000 0.000000 1.000000   0.000000

> <s_m_subgroup_title>
ligands

> <s_m_subgroupid>
ligands1

> <b_m_subgroup_collapsed>
0

$$$$
chembl_48
                    3D
 Schrodinger Suite 2021-4.
 36 38  0  0  1  0            999 V2000
   -9.0020  -20.9080    6.7010 N   0  3  0  0  0  0
   -9.3440  -19.6820    7.0960 C   0  0  0  0  0  0
  -10.6420  -19.4310    7.1010 N   0  0  0  0  0  0
   -8.3930  -18.6310    7.4680 C   0  0  0  0  0  0
   -8.7990  -17.5840    8.3270 C   0  0  0  0  0  0
   -7.8910  -16.5780    8.7010 C   0  0  0  0  0  0
   -6.5640  -16.6180    8.2350 C   0  0  0  0  0  0
   -5.6280  -15.6680    8.6830 C   0  0  0  0  0  0
   -4.2910  -15.7060    8.2360 C   0  0  0  0  0  0
   -3.3080  -14.7540    8.7730 C   0  0  0  0  0  0
   -2.5220  -13.9540    7.9170 C   0  0  0  0  0  0
   -1.5970  -13.0320    8.4450 C   0  0  0  0  0  0
   -1.4350  -12.9150    9.8390 C   0  0  0  0  0  0
   -0.5300  -11.9950   10.3650 N   0  0  0  0  0  0
   -2.1960  -13.7270   10.7010 C   0  0  0  0  0  0
   -3.1340  -14.6310   10.1700 C   0  0  0  0  0  0
   -3.9130  -16.6900    7.2960 C   0  0  0  0  0  0
   -4.8400  -17.6540    6.8520 C   0  0  0  0  0  0
   -6.1620  -17.6340    7.3370 C   0  0  0  0  0  0
   -7.0800  -18.6310    6.9520 C   0  0  0  0  0  0
   -8.0250  -21.1520    6.5830 H   0  0  0  0  0  0
  -11.3100  -20.0980    6.6920 H   0  0  0  0  0  0
  -10.9530  -18.4830    7.2760 H   0  0  0  0  0  0
   -9.8000  -17.5500    8.7330 H   0  0  0  0  0  0
   -8.2060  -15.7990    9.3810 H   0  0  0  0  0  0
   -5.9300  -14.9170    9.4000 H   0  0  0  0  0  0
   -2.6320  -14.0370    6.8460 H   0  0  0  0  0  0
   -1.0140  -12.4190    7.7710 H   0  0  0  0  0  0
   -0.2540  -12.0380   11.3360 H   0  0  0  0  0  0
    0.1300  -11.5320    9.7560 H   0  0  0  0  0  0
   -2.0780  -13.6490   11.7720 H   0  0  0  0  0  0
   -3.7210  -15.2390   10.8430 H   0  0  0  0  0  0
   -2.8940  -16.7320    6.9410 H   0  0  0  0  0  0
   -4.5250  -18.4220    6.1600 H   0  0  0  0  0  0
   -6.7620  -19.4130    6.2820 H   0  0  0  0  0  0
   -9.7080  -21.4490    6.1880 H   0  0  0  0  0  0
  1  2  2  0  0  0
  1 21  1  0  0  0
  1 36  1  0  0  0
  2  3  1  0  0  0
  2  4  1  0  0  0
  3 22  1  0  0  0
  3 23  1  0  0  0
  4 20  2  0  0  0
  4  5  1  0  0  0
  5  6  2  0  0  0
  5 24  1  0  0  0
  6  7  1  0  0  0
  6 25  1  0  0  0
  7 19  2  0  0  0
  7  8  1  0  0  0
  8  9  2  0  0  0
  8 26  1  0  0  0
  9 10  1  0  0  0
  9 17  1  0  0  0
 10 16  2  0  0  0
 10 11  1  0  0  0
 11 12  2  0  0  0
 11 27  1  0  0  0
 12 13  1  0  0  0
 12 28  1  0  0  0
 13 14  1  0  0  0
 13 15  2  0  0  0
 14 29  1  0  0  0
 14 30  1  0  0  0
 15 16  1  0  0  0
 15 31  1  0  0  0
 16 32  1  0  0  0
 17 18  2  0  0  0
 17 33  1  0  0  0
 18 19  1  0  0  0
 18 34  1  0  0  0
 19 20  1  0  0  0
 20 35  1  0  0  0
M  CHG  1   1   1
M  END
> <s_m_entry_id>
161

> <s_m_entry_name>
4FU9_chembl_48.1

> <s_pdb_PDB_TITLE>
CRYSTAL STRUCTURE OF THE UROKINASE

> <s_pdb_PDB_format_version>
3.30

> <s_m_Source_Path>
/Users/mmunicoy/Documents/NBD/Projects/JJ/urokinase

> <s_m_Source_File>
4FU9_chembl_48.pdb

> <i_m_Source_File_Index>
1

> <s_pdb_PDB_ID>
4FU9

> <r_pdb_PDB_CRYST1_a>
55.1

> <r_pdb_PDB_CRYST1_b>
52.4

> <r_pdb_PDB_CRYST1_c>
80.25

> <r_pdb_PDB_CRYST1_alpha>
90

> <r_pdb_PDB_CRYST1_beta>
90

> <r_pdb_PDB_CRYST1_gamma>
90

> <s_pdb_PDB_CRYST1_Space_Group>
P 21 21 21

> <i_pdb_PDB_CRYST1_z>
4

> <s_pdb_PDB_CLASSIFICATION>
HYDROLASE/HYDROLASE INHIBITOR

> <s_pdb_PDB_DEPOSITION_DATE>
28-JUN-12

> <r_pdb_PDB_R>
0.15

> <r_pdb_PDB_Rfree>
0.182

> <r_pdb_PDB_RESOLUTION>
1.6

> <s_pdb_PDB_EXPDTA>
X-RAY DIFFRACTION

> <r_pdb_PDB_EXPDTA_TEMPERATURE>
160

> <r_pdb_PDB_EXPDTA_PH>
4.8

> <s_pdb_PDB_REMARK_350_Biomolecule_1_Transform_1_Chains>
A

> <s_pdb_PDB_REMARK_350_Biomolecule_1_Transform_1_Matrix_1>
1.000000 0.000000 0.000000   0.000000;0.000000 1.000000 0.000000   0.000000;0.000000 0.000000 1.000000   0.000000

> <s_m_subgroup_title>
ligands

> <s_m_subgroupid>
ligands1

> <b_m_subgroup_collapsed>
0

$$$$
chembl_49
                    3D
 Schrodinger Suite 2021-4.
 42 44  0  0  1  0            999 V2000
   -8.9670  -20.8740    6.6990 N   0  3  0  0  0  0
   -9.3390  -19.6590    7.1010 C   0  0  0  0  0  0
  -10.6420  -19.4300    7.1010 N   0  0  0  0  0  0
   -8.4110  -18.5840    7.4520 C   0  0  0  0  0  0
   -8.8130  -17.5950    8.3790 C   0  0  0  0  0  0
   -7.9520  -16.5350    8.7040 C   0  0  0  0  0  0
   -6.6760  -16.4590    8.1190 C   0  0  0  0  0  0
   -5.7930  -15.4310    8.4960 C   0  0  0  0  0  0
   -4.5120  -15.3520    7.9190 C   0  0  0  0  0  0
   -3.5960  -14.3180    8.3660 C   0  0  0  0  0  0
   -2.8320  -13.4870    8.8310 C   0  0  0  0  0  0
   -1.9060  -12.5620    9.4600 C   0  0  0  0  0  0
   -1.9640  -11.1820    9.1730 C   0  0  0  0  0  0
   -1.0600  -10.2950    9.7900 C   0  0  0  0  0  0
   -0.0940  -10.7840   10.6950 C   0  0  0  0  0  0
    0.9040   -9.8420   11.3320 C   0  0  0  0  0  0
    0.5580   -9.5650   12.7330 N   0  3  0  0  0  0
   -0.0440  -12.1630   10.9880 C   0  0  0  0  0  0
   -0.9500  -13.0490   10.3740 C   0  0  0  0  0  0
   -4.1190  -16.2960    6.9470 C   0  0  0  0  0  0
   -4.9990  -17.3320    6.5700 C   0  0  0  0  0  0
   -6.2750  -17.4270    7.1660 C   0  0  0  0  0  0
   -7.1480  -18.4820    6.8300 C   0  0  0  0  0  0
   -7.9880  -21.1200    6.6730 H   0  0  0  0  0  0
   -9.6650  -21.5490    6.4200 H   0  0  0  0  0  0
  -10.9970  -18.5310    7.3940 H   0  0  0  0  0  0
  -11.2820  -20.1550    6.8080 H   0  0  0  0  0  0
   -9.7870  -17.6530    8.8420 H   0  0  0  0  0  0
   -8.2690  -15.7760    9.4040 H   0  0  0  0  0  0
   -6.0970  -14.7000    9.2310 H   0  0  0  0  0  0
   -2.7000  -10.8060    8.4790 H   0  0  0  0  0  0
   -1.1070   -9.2380    9.5710 H   0  0  0  0  0  0
    0.9290   -8.9070   10.7720 H   0  0  0  0  0  0
    1.9000  -10.2830   11.2850 H   0  0  0  0  0  0
    1.2400   -8.9350   13.1300 H   0  0  0  0  0  0
   -0.3570   -9.1400   12.7760 H   0  0  0  0  0  0
    0.5530  -10.4290   13.2560 H   0  0  0  0  0  0
    0.6900  -12.5410   11.6840 H   0  0  0  0  0  0
   -0.9120  -14.1030   10.6050 H   0  0  0  0  0  0
   -3.1440  -16.2260    6.4890 H   0  0  0  0  0  0
   -4.6970  -18.0530    5.8260 H   0  0  0  0  0  0
   -6.8470  -19.2140    6.0950 H   0  0  0  0  0  0
  1  2  2  0  0  0
  1 24  1  0  0  0
  1 25  1  0  0  0
  2  3  1  0  0  0
  2  4  1  0  0  0
  3 26  1  0  0  0
  3 27  1  0  0  0
  4 23  2  0  0  0
  4  5  1  0  0  0
  5  6  2  0  0  0
  5 28  1  0  0  0
  6  7  1  0  0  0
  6 29  1  0  0  0
  7 22  2  0  0  0
  7  8  1  0  0  0
  8  9  2  0  0  0
  8 30  1  0  0  0
  9 10  1  0  0  0
  9 20  1  0  0  0
 10 11  3  0  0  0
 11 12  1  0  0  0
 12 19  2  0  0  0
 12 13  1  0  0  0
 13 14  2  0  0  0
 13 31  1  0  0  0
 14 15  1  0  0  0
 14 32  1  0  0  0
 15 16  1  0  0  0
 15 18  2  0  0  0
 16 17  1  0  0  0
 16 33  1  0  0  0
 16 34  1  0  0  0
 17 35  1  0  0  0
 17 36  1  0  0  0
 17 37  1  0  0  0
 18 19  1  0  0  0
 18 38  1  0  0  0
 19 39  1  0  0  0
 20 21  2  0  0  0
 20 40  1  0  0  0
 21 22  1  0  0  0
 21 41  1  0  0  0
 22 23  1  0  0  0
 23 42  1  0  0  0
M  CHG  2   1   1  17   1
M  END
> <s_m_entry_id>
162

> <s_m_entry_name>
4FU9_chembl_49.1

> <s_pdb_PDB_TITLE>
CRYSTAL STRUCTURE OF THE UROKINASE

> <s_pdb_PDB_format_version>
3.30

> <s_m_Source_Path>
/Users/mmunicoy/Documents/NBD/Projects/JJ/urokinase

> <s_m_Source_File>
4FU9_chembl_49.pdb

> <i_m_Source_File_Index>
1

> <s_pdb_PDB_ID>
4FU9

> <r_pdb_PDB_CRYST1_a>
55.1

> <r_pdb_PDB_CRYST1_b>
52.4

> <r_pdb_PDB_CRYST1_c>
80.25

> <r_pdb_PDB_CRYST1_alpha>
90

> <r_pdb_PDB_CRYST1_beta>
90

> <r_pdb_PDB_CRYST1_gamma>
90

> <s_pdb_PDB_CRYST1_Space_Group>
P 21 21 21

> <i_pdb_PDB_CRYST1_z>
4

> <s_pdb_PDB_CLASSIFICATION>
HYDROLASE/HYDROLASE INHIBITOR

> <s_pdb_PDB_DEPOSITION_DATE>
28-JUN-12

> <r_pdb_PDB_R>
0.15

> <r_pdb_PDB_Rfree>
0.182

> <r_pdb_PDB_RESOLUTION>
1.6

> <s_pdb_PDB_EXPDTA>
X-RAY DIFFRACTION

> <r_pdb_PDB_EXPDTA_TEMPERATURE>
160

> <r_pdb_PDB_EXPDTA_PH>
4.8

> <s_pdb_PDB_REMARK_350_Biomolecule_1_Transform_1_Chains>
A

> <s_pdb_PDB_REMARK_350_Biomolecule_1_Transform_1_Matrix_1>
1.000000 0.000000 0.000000   0.000000;0.000000 1.000000 0.000000   0.000000;0.000000 0.000000 1.000000   0.000000

> <s_m_subgroup_title>
ligands

> <s_m_subgroupid>
ligands1

> <b_m_subgroup_collapsed>
0

$$$$
chembl_50
                    3D
 Schrodinger Suite 2021-4.
 24 24  0  0  1  0            999 V2000
   -9.0420  -21.1630    6.7010 N   0  0  0  0  0  0
   -9.1590  -19.8310    6.9960 C   0  0  0  0  0  0
  -10.4720  -19.4310    7.1010 N   0  0  0  0  0  0
   -8.0880  -19.1170    7.1270 N   0  3  0  0  0  0
   -8.1330  -17.7550    7.3880 C   0  0  0  0  0  0
   -9.1250  -17.0740    7.6720 O   0  0  0  0  0  0
   -6.7820  -17.0820    7.3130 C   0  0  0  0  0  0
   -5.8820  -17.5960    6.4350 N   0  0  0  0  0  0
   -4.6610  -17.0310    6.3690 C   0  0  0  0  0  0
   -3.5080  -17.7060    5.2720 Cl  0  0  0  0  0  0
   -4.3330  -15.9120    7.1720 C   0  0  0  0  0  0
   -3.0850  -15.2960    7.1010 N   0  0  0  0  0  0
   -5.2140  -15.3830    8.0480 N   0  0  0  0  0  0
   -6.4270  -15.9740    8.1360 C   0  0  0  0  0  0
   -7.2840  -15.4310    9.0910 N   0  0  0  0  0  0
   -8.1280  -21.5790    6.5980 H   0  0  0  0  0  0
   -9.8700  -21.7290    6.5870 H   0  0  0  0  0  0
  -10.6910  -18.4690    7.3160 H   0  0  0  0  0  0
  -11.2160  -20.1000    6.9630 H   0  0  0  0  0  0
   -7.1790  -19.5490    7.0380 H   0  0  0  0  0  0
   -2.8810  -14.5000    7.6870 H   0  0  0  0  0  0
   -2.3850  -15.6470    6.4630 H   0  0  0  0  0  0
   -6.9850  -14.6440    9.6490 H   0  0  0  0  0  0
   -8.2050  -15.8240    9.2250 H   0  0  0  0  0  0
  1  2  1  0  0  0
  1 16  1  0  0  0
  1 17  1  0  0  0
  2  3  1  0  0  0
  2  4  2  0  0  0
  3 18  1  0  0  0
  3 19  1  0  0  0
  4  5  1  0  0  0
  4 20  1  0  0  0
  5  6  2  0  0  0
  5  7  1  0  0  0
  7 14  2  0  0  0
  7  8  1  0  0  0
  8  9  2  0  0  0
  9 10  1  0  0  0
  9 11  1  0  0  0
 11 12  1  0  0  0
 11 13  2  0  0  0
 12 21  1  0  0  0
 12 22  1  0  0  0
 13 14  1  0  0  0
 14 15  1  0  0  0
 15 23  1  0  0  0
 15 24  1  0  0  0
M  CHG  1   4   1
M  END
> <s_m_entry_id>
163

> <s_m_entry_name>
4FU9_chembl_50.1

> <s_pdb_PDB_TITLE>
CRYSTAL STRUCTURE OF THE UROKINASE

> <s_pdb_PDB_format_version>
3.30

> <s_m_Source_Path>
/Users/mmunicoy/Documents/NBD/Projects/JJ/urokinase

> <s_m_Source_File>
4FU9_chembl_50.pdb

> <i_m_Source_File_Index>
1

> <s_pdb_PDB_ID>
4FU9

> <r_pdb_PDB_CRYST1_a>
55.1

> <r_pdb_PDB_CRYST1_b>
52.4

> <r_pdb_PDB_CRYST1_c>
80.25

> <r_pdb_PDB_CRYST1_alpha>
90

> <r_pdb_PDB_CRYST1_beta>
90

> <r_pdb_PDB_CRYST1_gamma>
90

> <s_pdb_PDB_CRYST1_Space_Group>
P 21 21 21

> <i_pdb_PDB_CRYST1_z>
4

> <s_pdb_PDB_CLASSIFICATION>
HYDROLASE/HYDROLASE INHIBITOR

> <s_pdb_PDB_DEPOSITION_DATE>
28-JUN-12

> <r_pdb_PDB_R>
0.15

> <r_pdb_PDB_Rfree>
0.182

> <r_pdb_PDB_RESOLUTION>
1.6

> <s_pdb_PDB_EXPDTA>
X-RAY DIFFRACTION

> <r_pdb_PDB_EXPDTA_TEMPERATURE>
160

> <r_pdb_PDB_EXPDTA_PH>
4.8

> <s_pdb_PDB_REMARK_350_Biomolecule_1_Transform_1_Chains>
A

> <s_pdb_PDB_REMARK_350_Biomolecule_1_Transform_1_Matrix_1>
1.000000 0.000000 0.000000   0.000000;0.000000 1.000000 0.000000   0.000000;0.000000 0.000000 1.000000   0.000000

> <s_m_subgroup_title>
ligands

> <s_m_subgroupid>
ligands1

> <b_m_subgroup_collapsed>
0

$$$$
chembl_52
                    3D
 Schrodinger Suite 2021-4.
 30 32  0  0  1  0            999 V2000
   -9.0420  -20.6400    6.7010 N   0  0  0  0  0  0
   -8.7070  -19.3910    7.1910 C   0  0  0  0  0  0
   -9.6330  -18.6080    7.8990 C   0  0  0  0  0  0
   -9.1870  -17.3940    8.4520 C   0  0  0  0  0  0
   -7.8410  -17.0180    8.2830 C   0  0  0  0  0  0
   -7.3580  -15.8310    8.8670 C   0  0  0  0  0  0
   -5.9990  -15.4970    8.7430 C   0  0  0  0  0  0
   -5.1360  -16.3130    7.9970 C   0  0  0  0  0  0
   -5.6250  -17.4860    7.3750 C   0  0  0  0  0  0
   -4.7900  -18.3570    6.6220 N   0  0  0  0  0  0
   -3.6660  -18.0680    5.9470 C   0  0  0  0  0  0
   -3.1520  -16.9500    5.9000 O   0  0  0  0  0  0
   -3.0930  -19.2390    5.2220 C   0  0  0  0  0  0
   -2.7220  -19.0260    3.7690 C   0  0  0  0  0  0
   -1.6360  -19.1850    4.8030 C   0  0  0  0  0  0
   -6.9790  -17.8670    7.5400 C   0  0  0  0  0  0
   -7.4270  -19.0290    7.0160 N   0  0  0  0  0  0
   -9.9870  -20.9830    6.7960 H   0  0  0  0  0  0
   -8.3410  -21.2100    6.2480 H   0  0  0  0  0  0
  -10.6550  -18.9430    8.0050 H   0  0  0  0  0  0
   -9.8730  -16.7650    8.9990 H   0  0  0  0  0  0
   -8.0310  -15.1820    9.4070 H   0  0  0  0  0  0
   -5.6160  -14.6090    9.2240 H   0  0  0  0  0  0
   -4.0940  -16.0470    7.8960 H   0  0  0  0  0  0
   -5.0200  -19.3380    6.5470 H   0  0  0  0  0  0
   -3.4890  -20.2190    5.4870 H   0  0  0  0  0  0
   -2.7710  -17.9380    3.7350 H   0  0  0  0  0  0
   -2.7840  -20.0570    3.4210 H   0  0  0  0  0  0
   -1.4490  -20.2540    4.6930 H   0  0  0  0  0  0
   -1.4360  -18.1340    5.0060 H   0  0  0  0  0  0
  1  2  1  0  0  0
  1 18  1  0  0  0
  1 19  1  0  0  0
  2 17  2  0  0  0
  2  3  1  0  0  0
  3  4  2  0  0  0
  3 20  1  0  0  0
  4  5  1  0  0  0
  4 21  1  0  0  0
  5 16  2  0  0  0
  5  6  1  0  0  0
  6  7  2  0  0  0
  6 22  1  0  0  0
  7  8  1  0  0  0
  7 23  1  0  0  0
  8  9  2  0  0  0
  8 24  1  0  0  0
  9 10  1  0  0  0
  9 16  1  0  0  0
 10 11  1  0  0  0
 10 25  1  0  0  0
 11 12  2  0  0  0
 11 13  1  0  0  0
 13 15  1  0  0  0
 13 14  1  0  0  0
 13 26  1  0  0  0
 14 15  1  0  0  0
 14 27  1  0  0  0
 14 28  1  0  0  0
 15 29  1  0  0  0
 15 30  1  0  0  0
 16 17  1  0  0  0
M  END
> <s_m_entry_id>
164

> <s_m_entry_name>
4FU9_chembl_52.1

> <s_pdb_PDB_TITLE>
CRYSTAL STRUCTURE OF THE UROKINASE

> <s_pdb_PDB_format_version>
3.30

> <s_m_Source_Path>
/Users/mmunicoy/Documents/NBD/Projects/JJ/urokinase

> <s_m_Source_File>
4FU9_chembl_52.pdb

> <i_m_Source_File_Index>
1

> <s_pdb_PDB_ID>
4FU9

> <r_pdb_PDB_CRYST1_a>
55.1

> <r_pdb_PDB_CRYST1_b>
52.4

> <r_pdb_PDB_CRYST1_c>
80.25

> <r_pdb_PDB_CRYST1_alpha>
90

> <r_pdb_PDB_CRYST1_beta>
90

> <r_pdb_PDB_CRYST1_gamma>
90

> <s_pdb_PDB_CRYST1_Space_Group>
P 21 21 21

> <i_pdb_PDB_CRYST1_z>
4

> <s_pdb_PDB_CLASSIFICATION>
HYDROLASE/HYDROLASE INHIBITOR

> <s_pdb_PDB_DEPOSITION_DATE>
28-JUN-12

> <r_pdb_PDB_R>
0.15

> <r_pdb_PDB_Rfree>
0.182

> <r_pdb_PDB_RESOLUTION>
1.6

> <s_pdb_PDB_EXPDTA>
X-RAY DIFFRACTION

> <r_pdb_PDB_EXPDTA_TEMPERATURE>
160

> <r_pdb_PDB_EXPDTA_PH>
4.8

> <s_pdb_PDB_REMARK_350_Biomolecule_1_Transform_1_Chains>
A

> <s_pdb_PDB_REMARK_350_Biomolecule_1_Transform_1_Matrix_1>
1.000000 0.000000 0.000000   0.000000;0.000000 1.000000 0.000000   0.000000;0.000000 0.000000 1.000000   0.000000

> <s_m_subgroup_title>
ligands

> <s_m_subgroupid>
ligands1

> <b_m_subgroup_collapsed>
0

$$$$
cheml_53
                    3D
 Schrodinger Suite 2021-4.
 29 31  0  0  1  0            999 V2000
   -9.0420  -20.6530    6.7010 N   0  0  0  0  0  0
   -8.6470  -19.3850    7.1010 C   0  0  0  0  0  0
   -9.5900  -18.4390    7.5160 C   0  0  0  0  0  0
   -9.1340  -17.1810    7.9410 C   0  0  0  0  0  0
   -7.7490  -16.9260    7.9410 C   0  0  0  0  0  0
   -7.2640  -15.6830    8.3840 C   0  0  0  0  0  0
   -5.8810  -15.4310    8.3840 C   0  0  0  0  0  0
   -4.9870  -16.4140    7.9340 C   0  0  0  0  0  0
   -5.4670  -17.6660    7.5030 C   0  0  0  0  0  0
   -4.5350  -18.6310    7.1010 N   0  0  0  0  0  0
   -3.7220  -18.7000    5.9950 C   0  0  0  0  0  0
   -2.8750  -19.7300    5.9500 N   0  0  0  0  0  0
   -2.0630  -19.7950    4.8760 C   0  0  0  0  0  0
   -2.1230  -18.8560    3.8340 C   0  0  0  0  0  0
   -3.0620  -17.8240    3.9920 C   0  0  0  0  0  0
   -3.8450  -17.7350    5.0830 N   0  0  0  0  0  0
   -6.8580  -17.9420    7.5010 C   0  0  0  0  0  0
   -7.3250  -19.1430    7.1010 N   0  0  0  0  0  0
  -10.0220  -20.8940    6.6800 H   0  0  0  0  0  0
   -8.3490  -21.3360    6.4310 H   0  0  0  0  0  0
  -10.6420  -18.6850    7.5050 H   0  0  0  0  0  0
   -9.8410  -16.4300    8.2600 H   0  0  0  0  0  0
   -7.9540  -14.9240    8.7230 H   0  0  0  0  0  0
   -5.5060  -14.4790    8.7310 H   0  0  0  0  0  0
   -3.9260  -16.2120    7.9170 H   0  0  0  0  0  0
   -4.3770  -19.4490    7.6720 H   0  0  0  0  0  0
   -1.3350  -20.5890    4.7970 H   0  0  0  0  0  0
   -1.4710  -18.9560    2.9790 H   0  0  0  0  0  0
   -3.1710  -17.0710    3.2250 H   0  0  0  0  0  0
  1  2  1  0  0  0
  1 19  1  0  0  0
  1 20  1  0  0  0
  2 18  2  0  0  0
  2  3  1  0  0  0
  3  4  2  0  0  0
  3 21  1  0  0  0
  4  5  1  0  0  0
  4 22  1  0  0  0
  5 17  2  0  0  0
  5  6  1  0  0  0
  6  7  2  0  0  0
  6 23  1  0  0  0
  7  8  1  0  0  0
  7 24  1  0  0  0
  8  9  2  0  0  0
  8 25  1  0  0  0
  9 10  1  0  0  0
  9 17  1  0  0  0
 10 11  1  0  0  0
 10 26  1  0  0  0
 11 16  2  0  0  0
 11 12  1  0  0  0
 12 13  2  0  0  0
 13 14  1  0  0  0
 13 27  1  0  0  0
 14 15  2  0  0  0
 14 28  1  0  0  0
 15 16  1  0  0  0
 15 29  1  0  0  0
 17 18  1  0  0  0
M  END
> <s_m_entry_id>
165

> <s_m_entry_name>
4FU9_chembl_53.1

> <s_pdb_PDB_TITLE>
CRYSTAL STRUCTURE OF THE UROKINASE

> <s_pdb_PDB_format_version>
3.30

> <s_m_Source_Path>
/Users/mmunicoy/Documents/NBD/Projects/JJ/urokinase

> <s_m_Source_File>
4FU9_chembl_53.pdb

> <i_m_Source_File_Index>
1

> <s_pdb_PDB_ID>
4FU9

> <r_pdb_PDB_CRYST1_a>
55.1

> <r_pdb_PDB_CRYST1_b>
52.4

> <r_pdb_PDB_CRYST1_c>
80.25

> <r_pdb_PDB_CRYST1_alpha>
90

> <r_pdb_PDB_CRYST1_beta>
90

> <r_pdb_PDB_CRYST1_gamma>
90

> <s_pdb_PDB_CRYST1_Space_Group>
P 21 21 21

> <i_pdb_PDB_CRYST1_z>
4

> <s_pdb_PDB_CLASSIFICATION>
HYDROLASE/HYDROLASE INHIBITOR

> <s_pdb_PDB_DEPOSITION_DATE>
28-JUN-12

> <r_pdb_PDB_R>
0.15

> <r_pdb_PDB_Rfree>
0.182

> <r_pdb_PDB_RESOLUTION>
1.6

> <s_pdb_PDB_EXPDTA>
X-RAY DIFFRACTION

> <r_pdb_PDB_EXPDTA_TEMPERATURE>
160

> <r_pdb_PDB_EXPDTA_PH>
4.8

> <s_pdb_PDB_REMARK_350_Biomolecule_1_Transform_1_Chains>
A

> <s_pdb_PDB_REMARK_350_Biomolecule_1_Transform_1_Matrix_1>
1.000000 0.000000 0.000000   0.000000;0.000000 1.000000 0.000000   0.000000;0.000000 0.000000 1.000000   0.000000

> <s_m_subgroup_title>
ligands

> <s_m_subgroupid>
ligands1

> <b_m_subgroup_collapsed>
0

$$$$
chembl_59
                    3D
 Schrodinger Suite 2021-4.
 51 55  0  0  1  0            999 V2000
  -10.3710  -19.4310    7.1010 N   0  3  0  0  0  0
   -9.0540  -19.6360    7.0580 C   0  0  0  0  0  0
   -8.6420  -20.8570    6.7010 N   0  0  0  0  0  0
   -8.1200  -18.5510    7.3730 C   0  0  0  0  0  0
   -8.4870  -17.5490    8.3000 C   0  0  0  0  0  0
   -7.6080  -16.4880    8.5750 C   0  0  0  0  0  0
   -6.3480  -16.4320    7.9460 C   0  0  0  0  0  0
   -5.4800  -15.3670    8.2420 C   0  0  0  0  0  0
   -4.2210  -15.2610    7.6160 C   0  0  0  0  0  0
   -3.2930  -14.1140    7.9010 C   0  0  2  0  0  0
   -3.0370  -13.6570    9.3210 C   0  0  0  0  0  0
   -3.8080  -12.7700    8.3680 C   0  0  1  0  0  0
   -3.2450  -11.4590    7.9020 C   0  0  0  0  0  0
   -1.8920  -11.3200    7.5160 C   0  0  0  0  0  0
   -1.3910  -10.0750    7.0890 C   0  0  0  0  0  0
   -2.2380   -8.9530    7.0440 C   0  0  0  0  0  0
   -3.5840   -9.0820    7.4290 C   0  0  0  0  0  0
   -4.0840  -10.3250    7.8540 C   0  0  0  0  0  0
   -3.8260  -16.2740    6.7200 C   0  0  0  0  0  0
   -4.6620  -17.3750    6.4400 C   0  0  0  0  0  0
   -4.1470  -18.4120    5.6500 N   0  0  0  0  0  0
   -3.4760  -18.4150    4.4470 C   0  0  0  0  0  0
   -2.6420  -19.4310    4.2500 N   0  0  0  0  0  0
   -1.9980  -19.4670    3.0640 C   0  0  0  0  0  0
   -2.2080  -18.4930    2.0730 C   0  0  0  0  0  0
   -3.1210  -17.4760    2.3950 C   0  0  0  0  0  0
   -3.7370  -17.4310    3.5910 N   0  0  0  0  0  0
   -5.9510  -17.4400    7.0330 C   0  0  0  0  0  0
   -6.8570  -18.4840    6.7420 C   0  0  0  0  0  0
  -10.7330  -18.5260    7.3650 H   0  0  0  0  0  0
  -11.0060  -20.1810    6.8700 H   0  0  0  0  0  0
   -7.6540  -21.0630    6.6530 H   0  0  0  0  0  0
   -9.3190  -21.5730    6.4790 H   0  0  0  0  0  0
   -9.4450  -17.5990    8.7970 H   0  0  0  0  0  0
   -7.8970  -15.7140    9.2700 H   0  0  0  0  0  0
   -5.7740  -14.6140    8.9590 H   0  0  0  0  0  0
   -2.4230  -14.0620    7.2460 H   0  0  0  0  0  0
   -2.0430  -13.2300    9.1880 H   0  0  0  0  0  0
   -3.8750  -14.1500    9.8140 H   0  0  0  0  0  0
   -4.8820  -12.7480    8.5550 H   0  0  0  0  0  0
   -1.2320  -12.1740    7.5460 H   0  0  0  0  0  0
   -0.3550   -9.9820    6.7960 H   0  0  0  0  0  0
   -1.8540   -7.9990    6.7150 H   0  0  0  0  0  0
   -4.2390   -8.2230    7.3990 H   0  0  0  0  0  0
   -5.1210  -10.4080    8.1460 H   0  0  0  0  0  0
   -2.8640  -16.2170    6.2310 H   0  0  0  0  0  0
   -4.2440  -19.3710    5.9500 H   0  0  0  0  0  0
   -1.2970  -20.2620    2.8550 H   0  0  0  0  0  0
   -1.6810  -18.5560    1.1330 H   0  0  0  0  0  0
   -3.3440  -16.7030    1.6760 H   0  0  0  0  0  0
   -6.5710  -19.2390    6.0250 H   0  0  0  0  0  0
  1  2  2  0  0  0
  1 30  1  0  0  0
  1 31  1  0  0  0
  2  3  1  0  0  0
  2  4  1  0  0  0
  3 32  1  0  0  0
  3 33  1  0  0  0
  4 29  2  0  0  0
  4  5  1  0  0  0
  5  6  2  0  0  0
  5 34  1  0  0  0
  6  7  1  0  0  0
  6 35  1  0  0  0
  7 28  2  0  0  0
  7  8  1  0  0  0
  8  9  2  0  0  0
  8 36  1  0  0  0
  9 10  1  0  0  0
  9 19  1  0  0  0
 10 12  1  0  0  0
 10 11  1  0  0  0
 10 37  1  0  0  0
 11 12  1  0  0  0
 11 38  1  0  0  0
 11 39  1  0  0  0
 12 13  1  0  0  0
 12 40  1  0  0  0
 13 18  2  0  0  0
 13 14  1  0  0  0
 14 15  2  0  0  0
 14 41  1  0  0  0
 15 16  1  0  0  0
 15 42  1  0  0  0
 16 17  2  0  0  0
 16 43  1  0  0  0
 17 18  1  0  0  0
 17 44  1  0  0  0
 18 45  1  0  0  0
 19 20  2  0  0  0
 19 46  1  0  0  0
 20 21  1  0  0  0
 20 28  1  0  0  0
 21 22  1  0  0  0
 21 47  1  0  0  0
 22 27  2  0  0  0
 22 23  1  0  0  0
 23 24  2  0  0  0
 24 25  1  0  0  0
 24 48  1  0  0  0
 25 26  2  0  0  0
 25 49  1  0  0  0
 26 27  1  0  0  0
 26 50  1  0  0  0
 28 29  1  0  0  0
 29 51  1  0  0  0
M  CHG  1   1   1
M  END
> <s_m_entry_id>
166

> <s_m_entry_name>
4FU9_chembl_59.1

> <s_pdb_PDB_TITLE>
CRYSTAL STRUCTURE OF THE UROKINASE

> <s_pdb_PDB_format_version>
3.30

> <s_m_Source_Path>
/Users/mmunicoy/Documents/NBD/Projects/JJ/urokinase

> <s_m_Source_File>
4FU9_chembl_59.pdb

> <i_m_Source_File_Index>
1

> <s_pdb_PDB_ID>
4FU9

> <r_pdb_PDB_CRYST1_a>
55.1

> <r_pdb_PDB_CRYST1_b>
52.4

> <r_pdb_PDB_CRYST1_c>
80.25

> <r_pdb_PDB_CRYST1_alpha>
90

> <r_pdb_PDB_CRYST1_beta>
90

> <r_pdb_PDB_CRYST1_gamma>
90

> <s_pdb_PDB_CRYST1_Space_Group>
P 21 21 21

> <i_pdb_PDB_CRYST1_z>
4

> <s_pdb_PDB_CLASSIFICATION>
HYDROLASE/HYDROLASE INHIBITOR

> <s_pdb_PDB_DEPOSITION_DATE>
28-JUN-12

> <r_pdb_PDB_R>
0.15

> <r_pdb_PDB_Rfree>
0.182

> <r_pdb_PDB_RESOLUTION>
1.6

> <s_pdb_PDB_EXPDTA>
X-RAY DIFFRACTION

> <r_pdb_PDB_EXPDTA_TEMPERATURE>
160

> <r_pdb_PDB_EXPDTA_PH>
4.8

> <s_pdb_PDB_REMARK_350_Biomolecule_1_Transform_1_Chains>
A

> <s_pdb_PDB_REMARK_350_Biomolecule_1_Transform_1_Matrix_1>
1.000000 0.000000 0.000000   0.000000;0.000000 1.000000 0.000000   0.000000;0.000000 0.000000 1.000000   0.000000

> <s_m_subgroup_title>
ligands

> <s_m_subgroupid>
ligands1

> <b_m_subgroup_collapsed>
0

$$$$
chembl_60
                    3D
 Schrodinger Suite 2021-4.
 32 33  0  0  1  0            999 V2000
   -2.5660  -19.4310    2.8420 C   0  0  0  0  0  0
   -3.4420  -19.3400    3.9530 O   0  0  0  0  0  0
   -3.4420  -18.2310    4.7010 C   0  0  0  0  0  0
   -2.6630  -17.2920    4.5320 O   0  0  0  0  0  0
   -4.4640  -18.3410    5.6400 N   0  0  0  0  0  0
   -4.8920  -17.3730    6.5980 C   0  0  0  0  0  0
   -4.0230  -16.3400    7.0300 C   0  0  0  0  0  0
   -4.4360  -15.3960    7.9850 C   0  0  0  0  0  0
   -5.7250  -15.4730    8.5330 C   0  0  0  0  0  0
   -6.6030  -16.4960    8.1290 C   0  0  0  0  0  0
   -7.8880  -16.5520    8.7010 C   0  0  0  0  0  0
   -8.7740  -17.5860    8.3560 C   0  0  0  0  0  0
   -8.3880  -18.5720    7.4230 C   0  0  0  0  0  0
   -9.3320  -19.6460    7.0800 C   0  0  0  0  0  0
   -8.9610  -20.8680    6.7010 N   0  3  0  0  0  0
  -10.6420  -19.4310    7.1010 N   0  0  0  0  0  0
   -7.1110  -18.4890    6.8170 C   0  0  0  0  0  0
   -6.1960  -17.4620    7.1690 C   0  0  0  0  0  0
   -2.7000  -20.3950    2.3510 H   0  0  0  0  0  0
   -2.7900  -18.6310    2.1360 H   0  0  0  0  0  0
   -1.5350  -19.3370    3.1820 H   0  0  0  0  0  0
   -5.0080  -19.1910    5.6970 H   0  0  0  0  0  0
   -3.0250  -16.2680    6.6230 H   0  0  0  0  0  0
   -3.7610  -14.6130    8.2970 H   0  0  0  0  0  0
   -6.0440  -14.7470    9.2660 H   0  0  0  0  0  0
   -8.1970  -15.7970    9.4090 H   0  0  0  0  0  0
   -9.7550  -17.6280    8.8040 H   0  0  0  0  0  0
   -9.6610  -21.5620    6.4790 H   0  0  0  0  0  0
   -7.9810  -21.1020    6.6360 H   0  0  0  0  0  0
  -11.2800  -20.1770    6.8630 H   0  0  0  0  0  0
  -11.0000  -18.5220    7.3550 H   0  0  0  0  0  0
   -6.8190  -19.2150    6.0730 H   0  0  0  0  0  0
  1  2  1  0  0  0
  1 19  1  0  0  0
  1 20  1  0  0  0
  1 21  1  0  0  0
  2  3  1  0  0  0
  3  4  2  0  0  0
  3  5  1  0  0  0
  5  6  1  0  0  0
  5 22  1  0  0  0
  6 18  2  0  0  0
  6  7  1  0  0  0
  7  8  2  0  0  0
  7 23  1  0  0  0
  8  9  1  0  0  0
  8 24  1  0  0  0
  9 10  2  0  0  0
  9 25  1  0  0  0
 10 18  1  0  0  0
 10 11  1  0  0  0
 11 12  2  0  0  0
 11 26  1  0  0  0
 12 13  1  0  0  0
 12 27  1  0  0  0
 13 14  1  0  0  0
 13 17  2  0  0  0
 14 15  2  0  0  0
 14 16  1  0  0  0
 15 28  1  0  0  0
 15 29  1  0  0  0
 16 30  1  0  0  0
 16 31  1  0  0  0
 17 18  1  0  0  0
 17 32  1  0  0  0
M  CHG  1  15   1
M  END
> <s_m_entry_id>
167

> <s_m_entry_name>
4FU9_chembl_60.1

> <s_pdb_PDB_TITLE>
CRYSTAL STRUCTURE OF THE UROKINASE

> <s_pdb_PDB_format_version>
3.30

> <s_m_Source_Path>
/Users/mmunicoy/Documents/NBD/Projects/JJ/urokinase

> <s_m_Source_File>
4FU9_chembl_60.pdb

> <i_m_Source_File_Index>
1

> <s_pdb_PDB_ID>
4FU9

> <r_pdb_PDB_CRYST1_a>
55.1

> <r_pdb_PDB_CRYST1_b>
52.4

> <r_pdb_PDB_CRYST1_c>
80.25

> <r_pdb_PDB_CRYST1_alpha>
90

> <r_pdb_PDB_CRYST1_beta>
90

> <r_pdb_PDB_CRYST1_gamma>
90

> <s_pdb_PDB_CRYST1_Space_Group>
P 21 21 21

> <i_pdb_PDB_CRYST1_z>
4

> <s_pdb_PDB_CLASSIFICATION>
HYDROLASE/HYDROLASE INHIBITOR

> <s_pdb_PDB_DEPOSITION_DATE>
28-JUN-12

> <r_pdb_PDB_R>
0.15

> <r_pdb_PDB_Rfree>
0.182

> <r_pdb_PDB_RESOLUTION>
1.6

> <s_pdb_PDB_EXPDTA>
X-RAY DIFFRACTION

> <r_pdb_PDB_EXPDTA_TEMPERATURE>
160

> <r_pdb_PDB_EXPDTA_PH>
4.8

> <s_pdb_PDB_REMARK_350_Biomolecule_1_Transform_1_Chains>
A

> <s_pdb_PDB_REMARK_350_Biomolecule_1_Transform_1_Matrix_1>
1.000000 0.000000 0.000000   0.000000;0.000000 1.000000 0.000000   0.000000;0.000000 0.000000 1.000000   0.000000

> <s_m_subgroup_title>
ligands

> <s_m_subgroupid>
ligands1

> <b_m_subgroup_collapsed>
0

$$$$
chembl_61
                    3D
 Schrodinger Suite 2021-4.
 40 42  0  0  1  0            999 V2000
   -1.9860  -15.0430    6.7850 C   0  0  0  0  0  0
   -2.9140  -16.0030    6.3010 O   0  0  0  0  0  0
   -4.1210  -16.1600    6.9540 C   0  0  0  0  0  0
   -4.5310  -15.2900    7.9930 C   0  0  0  0  0  0
   -5.7930  -15.4310    8.5870 C   0  0  0  0  0  0
   -6.6690  -16.4400    8.1560 C   0  0  0  0  0  0
   -7.9420  -16.5360    8.7460 C   0  0  0  0  0  0
   -8.8110  -17.5790    8.3900 C   0  0  0  0  0  0
   -8.4180  -18.5300    7.4250 C   0  0  0  0  0  0
   -9.3300  -19.6240    7.0800 C   0  0  0  0  0  0
   -8.9310  -20.8370    6.7010 N   0  3  0  0  0  0
  -10.6420  -19.4310    7.1010 N   0  0  0  0  0  0
   -7.1640  -18.3940    6.7870 C   0  0  0  0  0  0
   -6.2700  -17.3520    7.1480 C   0  0  0  0  0  0
   -4.9910  -17.2110    6.5420 C   0  0  0  0  0  0
   -4.6220  -18.0840    5.5010 N   0  0  0  0  0  0
   -3.3680  -18.6540    5.2480 C   0  0  0  0  0  0
   -3.0420  -19.0190    3.9250 C   0  0  0  0  0  0
   -1.7810  -19.5710    3.6280 C   0  0  0  0  0  0
   -0.8390  -19.7690    4.6560 C   0  0  0  0  0  0
   -1.1670  -19.4310    5.9830 C   0  0  0  0  0  0
   -2.4320  -18.8870    6.2800 C   0  0  0  0  0  0
   -1.0940  -15.0500    6.1580 H   0  0  0  0  0  0
   -2.4400  -14.0520    6.7590 H   0  0  0  0  0  0
   -1.7100  -15.2890    7.8110 H   0  0  0  0  0  0
   -3.8700  -14.5080    8.3350 H   0  0  0  0  0  0
   -6.0950  -14.7620    9.3790 H   0  0  0  0  0  0
   -8.2560  -15.8050    9.4770 H   0  0  0  0  0  0
   -9.7840  -17.6540    8.8540 H   0  0  0  0  0  0
   -9.6130  -21.5470    6.4770 H   0  0  0  0  0  0
   -7.9450  -21.0470    6.6380 H   0  0  0  0  0  0
  -11.2680  -20.1870    6.8620 H   0  0  0  0  0  0
  -11.0150  -18.5280    7.3560 H   0  0  0  0  0  0
   -6.8730  -19.0880    6.0130 H   0  0  0  0  0  0
   -5.3080  -18.3730    4.8180 H   0  0  0  0  0  0
   -3.7620  -18.8760    3.1330 H   0  0  0  0  0  0
   -1.5360  -19.8420    2.6120 H   0  0  0  0  0  0
    0.1330  -20.1790    4.4260 H   0  0  0  0  0  0
   -0.4490  -19.5900    6.7740 H   0  0  0  0  0  0
   -2.6840  -18.6470    7.3020 H   0  0  0  0  0  0
  1  2  1  0  0  0
  1 23  1  0  0  0
  1 24  1  0  0  0
  1 25  1  0  0  0
  2  3  1  0  0  0
  3 15  2  0  0  0
  3  4  1  0  0  0
  4  5  2  0  0  0
  4 26  1  0  0  0
  5  6  1  0  0  0
  5 27  1  0  0  0
  6 14  2  0  0  0
  6  7  1  0  0  0
  7  8  2  0  0  0
  7 28  1  0  0  0
  8  9  1  0  0  0
  8 29  1  0  0  0
  9 10  1  0  0  0
  9 13  2  0  0  0
 10 11  2  0  0  0
 10 12  1  0  0  0
 11 30  1  0  0  0
 11 31  1  0  0  0
 12 32  1  0  0  0
 12 33  1  0  0  0
 13 14  1  0  0  0
 13 34  1  0  0  0
 14 15  1  0  0  0
 15 16  1  0  0  0
 16 17  1  0  0  0
 16 35  1  0  0  0
 17 22  2  0  0  0
 17 18  1  0  0  0
 18 19  2  0  0  0
 18 36  1  0  0  0
 19 20  1  0  0  0
 19 37  1  0  0  0
 20 21  2  0  0  0
 20 38  1  0  0  0
 21 22  1  0  0  0
 21 39  1  0  0  0
 22 40  1  0  0  0
M  CHG  1  11   1
M  END
> <s_m_entry_id>
168

> <s_m_entry_name>
4FU9_chembl_61.1

> <s_pdb_PDB_TITLE>
CRYSTAL STRUCTURE OF THE UROKINASE

> <s_pdb_PDB_format_version>
3.30

> <s_m_Source_Path>
/Users/mmunicoy/Documents/NBD/Projects/JJ/urokinase

> <s_m_Source_File>
4FU9_chembl_61.pdb

> <i_m_Source_File_Index>
1

> <s_pdb_PDB_ID>
4FU9

> <r_pdb_PDB_CRYST1_a>
55.1

> <r_pdb_PDB_CRYST1_b>
52.4

> <r_pdb_PDB_CRYST1_c>
80.25

> <r_pdb_PDB_CRYST1_alpha>
90

> <r_pdb_PDB_CRYST1_beta>
90

> <r_pdb_PDB_CRYST1_gamma>
90

> <s_pdb_PDB_CRYST1_Space_Group>
P 21 21 21

> <i_pdb_PDB_CRYST1_z>
4

> <s_pdb_PDB_CLASSIFICATION>
HYDROLASE/HYDROLASE INHIBITOR

> <s_pdb_PDB_DEPOSITION_DATE>
28-JUN-12

> <r_pdb_PDB_R>
0.15

> <r_pdb_PDB_Rfree>
0.182

> <r_pdb_PDB_RESOLUTION>
1.6

> <s_pdb_PDB_EXPDTA>
X-RAY DIFFRACTION

> <r_pdb_PDB_EXPDTA_TEMPERATURE>
160

> <r_pdb_PDB_EXPDTA_PH>
4.8

> <s_pdb_PDB_REMARK_350_Biomolecule_1_Transform_1_Chains>
A

> <s_pdb_PDB_REMARK_350_Biomolecule_1_Transform_1_Matrix_1>
1.000000 0.000000 0.000000   0.000000;0.000000 1.000000 0.000000   0.000000;0.000000 0.000000 1.000000   0.000000

> <s_m_subgroup_title>
ligands

> <s_m_subgroupid>
ligands1

> <b_m_subgroup_collapsed>
0

$$$$
chembl_62
                    3D
 Schrodinger Suite 2021-4.
 46 47  0  0  1  0            999 V2000
   -1.3610  -20.6590    2.6940 C   0  0  0  0  0  0
   -1.7530  -19.5370    3.6650 C   0  0  0  0  0  0
   -3.0830  -18.8420    3.3160 C   0  0  2  0  0  0
   -2.9980  -18.0270    2.0130 C   0  0  0  0  0  0
   -3.5060  -17.9250    4.4470 C   0  0  0  0  0  0
   -4.5280  -18.1530    5.2950 C   0  0  0  0  0  0
   -4.9670  -17.2610    6.3990 C   0  0  0  0  0  0
   -4.1080  -16.2110    6.8070 C   0  0  0  0  0  0
   -4.4710  -15.2900    7.8140 C   0  0  0  0  0  0
   -3.5700  -14.1710    8.2180 C   0  0  0  0  0  0
   -3.8500  -13.3570    9.1000 O   0  0  0  0  0  0
   -2.4280  -14.1320    7.5060 O   0  0  0  0  0  0
   -1.4810  -13.1040    7.7450 C   0  0  0  0  0  0
   -5.7240  -15.4330    8.4380 C   0  0  0  0  0  0
   -6.6010  -16.4650    8.0550 C   0  0  0  0  0  0
   -7.8490  -16.5600    8.7010 C   0  0  0  0  0  0
   -8.7410  -17.5940    8.3730 C   0  0  0  0  0  0
   -8.3960  -18.5390    7.3860 C   0  0  0  0  0  0
   -9.3300  -19.6270    7.0670 C   0  0  0  0  0  0
  -10.6420  -19.4310    7.1010 N   0  3  0  0  0  0
   -8.9410  -20.8460    6.7000 N   0  0  0  0  0  0
   -7.1660  -18.4090    6.7010 C   0  0  0  0  0  0
   -6.2380  -17.3890    7.0370 C   0  0  0  0  0  0
   -0.4150  -21.0990    3.0080 H   0  0  0  0  0  0
   -2.1350  -21.4270    2.6930 H   0  0  0  0  0  0
   -1.2560  -20.2500    1.6890 H   0  0  0  0  0  0
   -0.9560  -18.7950    3.7010 H   0  0  0  0  0  0
   -1.8110  -19.9380    4.6770 H   0  0  0  0  0  0
   -3.8480  -19.6080    3.1910 H   0  0  0  0  0  0
   -3.9620  -17.5580    1.8140 H   0  0  0  0  0  0
   -2.2340  -17.2560    2.1150 H   0  0  0  0  0  0
   -2.7390  -18.6880    1.1870 H   0  0  0  0  0  0
   -2.9120  -17.0280    4.5450 H   0  0  0  0  0  0
   -5.1140  -19.0560    5.2040 H   0  0  0  0  0  0
   -3.1390  -16.0960    6.3450 H   0  0  0  0  0  0
   -0.6270  -13.2340    7.0790 H   0  0  0  0  0  0
   -1.9410  -12.1340    7.5590 H   0  0  0  0  0  0
   -1.1440  -13.1530    8.7800 H   0  0  0  0  0  0
   -6.0200  -14.7480    9.2180 H   0  0  0  0  0  0
   -8.1250  -15.8360    9.4530 H   0  0  0  0  0  0
   -9.6930  -17.6660    8.8780 H   0  0  0  0  0  0
  -11.2720  -20.1890    6.8790 H   0  0  0  0  0  0
  -11.0110  -18.5240    7.3490 H   0  0  0  0  0  0
   -9.6300  -21.5550    6.4930 H   0  0  0  0  0  0
   -7.9570  -21.0630    6.6300 H   0  0  0  0  0  0
   -6.9160  -19.0950    5.9050 H   0  0  0  0  0  0
  1  2  1  0  0  0
  1 24  1  0  0  0
  1 25  1  0  0  0
  1 26  1  0  0  0
  2  3  1  0  0  0
  2 27  1  0  0  0
  2 28  1  0  0  0
  3  4  1  0  0  0
  3  5  1  0  0  0
  3 29  1  0  0  0
  4 30  1  0  0  0
  4 31  1  0  0  0
  4 32  1  0  0  0
  5  6  2  0  0  0
  5 33  1  0  0  0
  6  7  1  0  0  0
  6 34  1  0  0  0
  7 23  2  0  0  0
  7  8  1  0  0  0
  8  9  2  0  0  0
  8 35  1  0  0  0
  9 10  1  0  0  0
  9 14  1  0  0  0
 10 11  2  0  0  0
 10 12  1  0  0  0
 12 13  1  0  0  0
 13 36  1  0  0  0
 13 37  1  0  0  0
 13 38  1  0  0  0
 14 15  2  0  0  0
 14 39  1  0  0  0
 15 23  1  0  0  0
 15 16  1  0  0  0
 16 17  2  0  0  0
 16 40  1  0  0  0
 17 18  1  0  0  0
 17 41  1  0  0  0
 18 19  1  0  0  0
 18 22  2  0  0  0
 19 20  2  0  0  0
 19 21  1  0  0  0
 20 42  1  0  0  0
 20 43  1  0  0  0
 21 44  1  0  0  0
 21 45  1  0  0  0
 22 23  1  0  0  0
 22 46  1  0  0  0
M  CHG  1  20   1
M  END
> <s_m_entry_id>
169

> <s_m_entry_name>
4FU9_chembl_62.1

> <s_pdb_PDB_TITLE>
CRYSTAL STRUCTURE OF THE UROKINASE

> <s_pdb_PDB_format_version>
3.30

> <s_m_Source_Path>
/Users/mmunicoy/Documents/NBD/Projects/JJ/urokinase

> <s_m_Source_File>
4FU9_chembl_62.pdb

> <i_m_Source_File_Index>
1

> <s_pdb_PDB_ID>
4FU9

> <r_pdb_PDB_CRYST1_a>
55.1

> <r_pdb_PDB_CRYST1_b>
52.4

> <r_pdb_PDB_CRYST1_c>
80.25

> <r_pdb_PDB_CRYST1_alpha>
90

> <r_pdb_PDB_CRYST1_beta>
90

> <r_pdb_PDB_CRYST1_gamma>
90

> <s_pdb_PDB_CRYST1_Space_Group>
P 21 21 21

> <i_pdb_PDB_CRYST1_z>
4

> <s_pdb_PDB_CLASSIFICATION>
HYDROLASE/HYDROLASE INHIBITOR

> <s_pdb_PDB_DEPOSITION_DATE>
28-JUN-12

> <r_pdb_PDB_R>
0.15

> <r_pdb_PDB_Rfree>
0.182

> <r_pdb_PDB_RESOLUTION>
1.6

> <s_pdb_PDB_EXPDTA>
X-RAY DIFFRACTION

> <r_pdb_PDB_EXPDTA_TEMPERATURE>
160

> <r_pdb_PDB_EXPDTA_PH>
4.8

> <s_pdb_PDB_REMARK_350_Biomolecule_1_Transform_1_Chains>
A

> <s_pdb_PDB_REMARK_350_Biomolecule_1_Transform_1_Matrix_1>
1.000000 0.000000 0.000000   0.000000;0.000000 1.000000 0.000000   0.000000;0.000000 0.000000 1.000000   0.000000

> <s_m_subgroup_title>
ligands

> <s_m_subgroupid>
ligands1

> <b_m_subgroup_collapsed>
0

$$$$
chembl_63
                    3D
 Schrodinger Suite 2021-4.
 50 52  0  0  1  0            999 V2000
   -9.0420  -21.1550    6.7010 N   0  0  0  0  0  0
   -9.1800  -19.8220    6.9860 C   0  0  0  0  0  0
  -10.4970  -19.4310    7.1010 N   0  0  0  0  0  0
   -8.1190  -19.0920    7.1010 N   0  3  0  0  0  0
   -8.1950  -17.7220    7.3080 C   0  0  0  0  0  0
   -9.2120  -17.0310    7.4440 O   0  0  0  0  0  0
   -6.8490  -17.0480    7.3890 C   0  0  0  0  0  0
   -5.8500  -17.5500    6.6240 N   0  0  0  0  0  0
   -4.6200  -16.9980    6.7150 C   0  0  0  0  0  0
   -3.5940  -17.6770    5.8950 C   0  0  0  0  0  0
   -2.4430  -17.1240    5.2630 C   0  0  0  0  0  0
   -1.8260  -18.1740    4.6410 C   0  0  0  0  0  0
   -2.5110  -19.3360    4.8450 O   0  0  0  0  0  0
   -3.5910  -19.0140    5.6100 C   0  0  0  0  0  0
   -4.3880  -15.8920    7.5790 C   0  0  0  0  0  0
   -3.1100  -15.3250    7.7050 N   0  0  0  0  0  0
   -2.7010  -14.7860    8.9970 C   0  0  0  0  0  0
   -2.9830  -13.2820    9.1410 C   0  0  0  0  0  0
   -2.1180  -12.4040    8.2230 C   0  0  0  0  0  0
   -2.2990  -10.9280    8.5220 C   0  0  0  0  0  0
   -1.4970  -10.3030    9.5010 C   0  0  0  0  0  0
   -1.6720   -8.9370    9.7930 C   0  0  0  0  0  0
   -2.6420   -8.1870    9.1010 C   0  0  0  0  0  0
   -3.4420   -8.8060    8.1210 C   0  0  0  0  0  0
   -3.2740  -10.1750    7.8330 C   0  0  0  0  0  0
   -5.3870  -15.3730    8.3340 N   0  0  0  0  0  0
   -6.6010  -15.9560    8.2590 C   0  0  0  0  0  0
   -7.5770  -15.4310    9.1010 N   0  0  0  0  0  0
   -8.1210  -21.5560    6.5940 H   0  0  0  0  0  0
   -9.8610  -21.7370    6.5980 H   0  0  0  0  0  0
  -10.7210  -18.4690    7.3100 H   0  0  0  0  0  0
  -11.2370  -20.1070    6.9760 H   0  0  0  0  0  0
   -7.2050  -19.5170    7.0410 H   0  0  0  0  0  0
   -2.2350  -16.0680    5.3490 H   0  0  0  0  0  0
   -0.9170  -18.0120    4.0830 H   0  0  0  0  0  0
   -4.3800  -19.6490    5.9850 H   0  0  0  0  0  0
   -2.4900  -15.2950    6.9080 H   0  0  0  0  0  0
   -1.6370  -14.9700    9.1460 H   0  0  0  0  0  0
   -3.2120  -15.3270    9.7930 H   0  0  0  0  0  0
   -2.8290  -12.9830   10.1780 H   0  0  0  0  0  0
   -4.0360  -13.0900    8.9370 H   0  0  0  0  0  0
   -2.3800  -12.5980    7.1830 H   0  0  0  0  0  0
   -1.0690  -12.6730    8.3470 H   0  0  0  0  0  0
   -0.7470  -10.8730   10.0290 H   0  0  0  0  0  0
   -1.0610   -8.4640   10.5480 H   0  0  0  0  0  0
   -2.7730   -7.1380    9.3210 H   0  0  0  0  0  0
   -4.1860   -8.2320    7.5890 H   0  0  0  0  0  0
   -3.8910  -10.6490    7.0840 H   0  0  0  0  0  0
   -7.3570  -14.6520    9.7050 H   0  0  0  0  0  0
   -8.5060  -15.8290    9.1070 H   0  0  0  0  0  0
  1  2  1  0  0  0
  1 29  1  0  0  0
  1 30  1  0  0  0
  2  3  1  0  0  0
  2  4  2  0  0  0
  3 31  1  0  0  0
  3 32  1  0  0  0
  4  5  1  0  0  0
  4 33  1  0  0  0
  5  6  2  0  0  0
  5  7  1  0  0  0
  7 27  2  0  0  0
  7  8  1  0  0  0
  8  9  2  0  0  0
  9 10  1  0  0  0
  9 15  1  0  0  0
 10 14  2  0  0  0
 10 11  1  0  0  0
 11 12  2  0  0  0
 11 34  1  0  0  0
 12 13  1  0  0  0
 12 35  1  0  0  0
 13 14  1  0  0  0
 14 36  1  0  0  0
 15 16  1  0  0  0
 15 26  2  0  0  0
 16 17  1  0  0  0
 16 37  1  0  0  0
 17 18  1  0  0  0
 17 38  1  0  0  0
 17 39  1  0  0  0
 18 19  1  0  0  0
 18 40  1  0  0  0
 18 41  1  0  0  0
 19 20  1  0  0  0
 19 42  1  0  0  0
 19 43  1  0  0  0
 20 25  2  0  0  0
 20 21  1  0  0  0
 21 22  2  0  0  0
 21 44  1  0  0  0
 22 23  1  0  0  0
 22 45  1  0  0  0
 23 24  2  0  0  0
 23 46  1  0  0  0
 24 25  1  0  0  0
 24 47  1  0  0  0
 25 48  1  0  0  0
 26 27  1  0  0  0
 27 28  1  0  0  0
 28 49  1  0  0  0
 28 50  1  0  0  0
M  CHG  1   4   1
M  END
> <s_m_entry_id>
170

> <s_m_entry_name>
4FU9_chembl_63.1

> <s_pdb_PDB_TITLE>
CRYSTAL STRUCTURE OF THE UROKINASE

> <s_pdb_PDB_format_version>
3.30

> <s_m_Source_Path>
/Users/mmunicoy/Documents/NBD/Projects/JJ/urokinase

> <s_m_Source_File>
4FU9_chembl_63.pdb

> <i_m_Source_File_Index>
1

> <s_pdb_PDB_ID>
4FU9

> <r_pdb_PDB_CRYST1_a>
55.1

> <r_pdb_PDB_CRYST1_b>
52.4

> <r_pdb_PDB_CRYST1_c>
80.25

> <r_pdb_PDB_CRYST1_alpha>
90

> <r_pdb_PDB_CRYST1_beta>
90

> <r_pdb_PDB_CRYST1_gamma>
90

> <s_pdb_PDB_CRYST1_Space_Group>
P 21 21 21

> <i_pdb_PDB_CRYST1_z>
4

> <s_pdb_PDB_CLASSIFICATION>
HYDROLASE/HYDROLASE INHIBITOR

> <s_pdb_PDB_DEPOSITION_DATE>
28-JUN-12

> <r_pdb_PDB_R>
0.15

> <r_pdb_PDB_Rfree>
0.182

> <r_pdb_PDB_RESOLUTION>
1.6

> <s_pdb_PDB_EXPDTA>
X-RAY DIFFRACTION

> <r_pdb_PDB_EXPDTA_TEMPERATURE>
160

> <r_pdb_PDB_EXPDTA_PH>
4.8

> <s_pdb_PDB_REMARK_350_Biomolecule_1_Transform_1_Chains>
A

> <s_pdb_PDB_REMARK_350_Biomolecule_1_Transform_1_Matrix_1>
1.000000 0.000000 0.000000   0.000000;0.000000 1.000000 0.000000   0.000000;0.000000 0.000000 1.000000   0.000000

> <s_m_subgroup_title>
ligands

> <s_m_subgroupid>
ligands1

> <b_m_subgroup_collapsed>
0

$$$$
chembl_64
                    3D
 Schrodinger Suite 2021-4.
 39 41  0  0  1  0            999 V2000
   -8.6420  -19.9030    6.6990 N   0  0  0  0  0  0
   -8.0510  -18.6890    7.0270 C   0  0  0  0  0  0
   -8.8350  -17.5410    7.2240 C   0  0  0  0  0  0
   -8.1810  -16.3270    7.5010 C   0  0  0  0  0  0
   -6.7730  -16.3170    7.5740 C   0  0  0  0  0  0
   -6.0820  -15.1150    7.8100 C   0  0  0  0  0  0
   -4.6710  -15.0800    7.8960 C   0  0  0  0  0  0
   -3.9140  -13.8910    8.1370 N   0  0  0  0  0  0
   -4.2420  -12.6030    7.9010 C   0  0  0  0  0  0
   -5.3110  -12.2330    7.4130 O   0  0  0  0  0  0
   -3.1770  -11.5520    8.2410 C   0  0  0  0  0  0
   -3.7800  -10.1710    8.5840 C   0  0  0  0  0  0
   -2.7340   -9.0830    8.7490 C   0  0  0  0  0  0
   -2.6720   -8.0220    7.8190 C   0  0  0  0  0  0
   -1.7130   -7.0030    7.9690 C   0  0  0  0  0  0
   -0.8170   -7.0270    9.0570 C   0  0  0  0  0  0
   -0.8740   -8.0820    9.9870 C   0  0  0  0  0  0
   -1.8260   -9.1080    9.8300 C   0  0  0  0  0  0
   -3.9690  -16.2970    7.7600 C   0  0  0  0  0  0
   -4.6600  -17.4990    7.5060 C   0  0  0  0  0  0
   -6.0650  -17.5310    7.3960 C   0  0  0  0  0  0
   -6.7060  -18.6860    7.1210 N   0  0  0  0  0  0
   -9.6460  -19.9690    6.6140 H   0  0  0  0  0  0
   -8.0680  -20.7200    6.5460 H   0  0  0  0  0  0
   -9.9110  -17.6050    7.1620 H   0  0  0  0  0  0
   -8.7570  -15.4260    7.6530 H   0  0  0  0  0  0
   -6.6300  -14.1920    7.9290 H   0  0  0  0  0  0
   -2.9910  -13.9530    8.5400 H   0  0  0  0  0  0
   -2.4900  -11.4490    7.4010 H   0  0  0  0  0  0
   -2.5770  -11.9030    9.0800 H   0  0  0  0  0  0
   -4.3680  -10.2490    9.4980 H   0  0  0  0  0  0
   -4.4850   -9.8800    7.8050 H   0  0  0  0  0  0
   -3.3620   -7.9900    6.9890 H   0  0  0  0  0  0
   -1.6610   -6.1990    7.2490 H   0  0  0  0  0  0
   -0.0900   -6.2370    9.1750 H   0  0  0  0  0  0
   -0.1870   -8.1050   10.8200 H   0  0  0  0  0  0
   -1.8600   -9.9170   10.5450 H   0  0  0  0  0  0
   -2.8930  -16.3120    7.8510 H   0  0  0  0  0  0
   -4.1110  -18.4230    7.3920 H   0  0  0  0  0  0
  1  2  1  0  0  0
  1 23  1  0  0  0
  1 24  1  0  0  0
  2 22  2  0  0  0
  2  3  1  0  0  0
  3  4  2  0  0  0
  3 25  1  0  0  0
  4  5  1  0  0  0
  4 26  1  0  0  0
  5 21  2  0  0  0
  5  6  1  0  0  0
  6  7  2  0  0  0
  6 27  1  0  0  0
  7  8  1  0  0  0
  7 19  1  0  0  0
  8  9  1  0  0  0
  8 28  1  0  0  0
  9 10  2  0  0  0
  9 11  1  0  0  0
 11 12  1  0  0  0
 11 29  1  0  0  0
 11 30  1  0  0  0
 12 13  1  0  0  0
 12 31  1  0  0  0
 12 32  1  0  0  0
 13 18  2  0  0  0
 13 14  1  0  0  0
 14 15  2  0  0  0
 14 33  1  0  0  0
 15 16  1  0  0  0
 15 34  1  0  0  0
 16 17  2  0  0  0
 16 35  1  0  0  0
 17 18  1  0  0  0
 17 36  1  0  0  0
 18 37  1  0  0  0
 19 20  2  0  0  0
 19 38  1  0  0  0
 20 21  1  0  0  0
 20 39  1  0  0  0
 21 22  1  0  0  0
M  END
> <s_m_entry_id>
171

> <s_m_entry_name>
4FU9_chembl_64.1

> <s_pdb_PDB_TITLE>
CRYSTAL STRUCTURE OF THE UROKINASE

> <s_pdb_PDB_format_version>
3.30

> <s_m_Source_Path>
/Users/mmunicoy/Documents/NBD/Projects/JJ/urokinase

> <s_m_Source_File>
4FU9_chembl_64.pdb

> <i_m_Source_File_Index>
1

> <s_pdb_PDB_ID>
4FU9

> <r_pdb_PDB_CRYST1_a>
55.1

> <r_pdb_PDB_CRYST1_b>
52.4

> <r_pdb_PDB_CRYST1_c>
80.25

> <r_pdb_PDB_CRYST1_alpha>
90

> <r_pdb_PDB_CRYST1_beta>
90

> <r_pdb_PDB_CRYST1_gamma>
90

> <s_pdb_PDB_CRYST1_Space_Group>
P 21 21 21

> <i_pdb_PDB_CRYST1_z>
4

> <s_pdb_PDB_CLASSIFICATION>
HYDROLASE/HYDROLASE INHIBITOR

> <s_pdb_PDB_DEPOSITION_DATE>
28-JUN-12

> <r_pdb_PDB_R>
0.15

> <r_pdb_PDB_Rfree>
0.182

> <r_pdb_PDB_RESOLUTION>
1.6

> <s_pdb_PDB_EXPDTA>
X-RAY DIFFRACTION

> <r_pdb_PDB_EXPDTA_TEMPERATURE>
160

> <r_pdb_PDB_EXPDTA_PH>
4.8

> <s_pdb_PDB_REMARK_350_Biomolecule_1_Transform_1_Chains>
A

> <s_pdb_PDB_REMARK_350_Biomolecule_1_Transform_1_Matrix_1>
1.000000 0.000000 0.000000   0.000000;0.000000 1.000000 0.000000   0.000000;0.000000 0.000000 1.000000   0.000000

> <s_m_subgroup_title>
ligands

> <s_m_subgroupid>
ligands1

> <b_m_subgroup_collapsed>
0

$$$$
chembl_65
                    3D
 Schrodinger Suite 2021-4.
 45 47  0  0  1  0            999 V2000
  -10.4450  -19.4310    7.1020 N   0  3  0  0  0  0
   -9.1150  -19.5780    7.0550 C   0  0  0  0  0  0
   -8.6420  -20.7790    6.7000 N   0  0  0  0  0  0
   -8.2260  -18.4550    7.3790 C   0  0  0  0  0  0
   -8.6210  -17.4960    8.3400 C   0  0  0  0  0  0
   -7.7530  -16.4470    8.7000 C   0  0  0  0  0  0
   -6.4790  -16.3490    8.1060 C   0  0  0  0  0  0
   -5.5870  -15.3320    8.5030 C   0  0  0  0  0  0
   -4.3180  -15.2200    7.9010 C   0  0  0  0  0  0
   -3.4200  -14.1530    8.3200 C   0  0  0  0  0  0
   -2.7280  -13.2280    8.7210 C   0  0  0  0  0  0
   -1.9930  -12.0910    9.2550 C   0  0  0  0  0  0
   -1.0540  -12.2660   10.2950 C   0  0  0  0  0  0
   -0.4240  -11.1470   10.8780 C   0  0  0  0  0  0
   -0.7190   -9.8460   10.4170 C   0  0  0  0  0  0
   -0.0990   -8.6240   11.0790 C   0  0  0  0  0  0
    1.2160   -8.1790   10.4210 C   0  0  0  0  0  0
    2.3130   -9.1200   10.7010 N   0  3  0  0  0  0
   -1.6320   -9.6770    9.3550 C   0  0  0  0  0  0
   -2.2670  -10.7930    8.7760 C   0  0  0  0  0  0
   -3.9360  -16.1380    6.9010 C   0  0  0  0  0  0
   -4.8200  -17.1660    6.5090 C   0  0  0  0  0  0
   -6.0900  -17.2800    7.1120 C   0  0  0  0  0  0
   -6.9680  -18.3230    6.7460 C   0  0  0  0  0  0
  -10.8460  -18.5420    7.3640 H   0  0  0  0  0  0
  -11.0470  -20.2090    6.8740 H   0  0  0  0  0  0
   -7.6450  -20.9340    6.6520 H   0  0  0  0  0  0
   -9.2820  -21.5290    6.4820 H   0  0  0  0  0  0
   -9.5940  -17.5650    8.8030 H   0  0  0  0  0  0
   -8.0630  -15.7180    9.4340 H   0  0  0  0  0  0
   -5.8740  -14.6320    9.2730 H   0  0  0  0  0  0
   -0.8170  -13.2600   10.6470 H   0  0  0  0  0  0
    0.2870  -11.2840   11.6790 H   0  0  0  0  0  0
    0.0770   -8.8340   12.1340 H   0  0  0  0  0  0
   -0.8120   -7.8000   11.0570 H   0  0  0  0  0  0
    1.4870   -7.1880   10.7860 H   0  0  0  0  0  0
    1.0740   -8.0980    9.3440 H   0  0  0  0  0  0
    3.1580   -8.7950   10.2540 H   0  0  0  0  0  0
    2.4610   -9.1790   11.6980 H   0  0  0  0  0  0
    2.0730  -10.0340   10.3430 H   0  0  0  0  0  0
   -1.8480   -8.6870    8.9810 H   0  0  0  0  0  0
   -2.9650  -10.6540    7.9640 H   0  0  0  0  0  0
   -2.9660  -16.0560    6.4340 H   0  0  0  0  0  0
   -4.5250  -17.8690    5.7440 H   0  0  0  0  0  0
   -6.6740  -19.0220    5.9770 H   0  0  0  0  0  0
  1  2  2  0  0  0
  1 25  1  0  0  0
  1 26  1  0  0  0
  2  3  1  0  0  0
  2  4  1  0  0  0
  3 27  1  0  0  0
  3 28  1  0  0  0
  4 24  2  0  0  0
  4  5  1  0  0  0
  5  6  2  0  0  0
  5 29  1  0  0  0
  6  7  1  0  0  0
  6 30  1  0  0  0
  7 23  2  0  0  0
  7  8  1  0  0  0
  8  9  2  0  0  0
  8 31  1  0  0  0
  9 10  1  0  0  0
  9 21  1  0  0  0
 10 11  3  0  0  0
 11 12  1  0  0  0
 12 20  2  0  0  0
 12 13  1  0  0  0
 13 14  2  0  0  0
 13 32  1  0  0  0
 14 15  1  0  0  0
 14 33  1  0  0  0
 15 16  1  0  0  0
 15 19  2  0  0  0
 16 17  1  0  0  0
 16 34  1  0  0  0
 16 35  1  0  0  0
 17 18  1  0  0  0
 17 36  1  0  0  0
 17 37  1  0  0  0
 18 38  1  0  0  0
 18 39  1  0  0  0
 18 40  1  0  0  0
 19 20  1  0  0  0
 19 41  1  0  0  0
 20 42  1  0  0  0
 21 22  2  0  0  0
 21 43  1  0  0  0
 22 23  1  0  0  0
 22 44  1  0  0  0
 23 24  1  0  0  0
 24 45  1  0  0  0
M  CHG  2   1   1  18   1
M  END
> <s_m_entry_id>
172

> <s_m_entry_name>
4FU9_chembl_65.1

> <s_pdb_PDB_TITLE>
CRYSTAL STRUCTURE OF THE UROKINASE

> <s_pdb_PDB_format_version>
3.30

> <s_m_Source_Path>
/Users/mmunicoy/Documents/NBD/Projects/JJ/urokinase

> <s_m_Source_File>
4FU9_chembl_65.pdb

> <i_m_Source_File_Index>
1

> <s_pdb_PDB_ID>
4FU9

> <r_pdb_PDB_CRYST1_a>
55.1

> <r_pdb_PDB_CRYST1_b>
52.4

> <r_pdb_PDB_CRYST1_c>
80.25

> <r_pdb_PDB_CRYST1_alpha>
90

> <r_pdb_PDB_CRYST1_beta>
90

> <r_pdb_PDB_CRYST1_gamma>
90

> <s_pdb_PDB_CRYST1_Space_Group>
P 21 21 21

> <i_pdb_PDB_CRYST1_z>
4

> <s_pdb_PDB_CLASSIFICATION>
HYDROLASE/HYDROLASE INHIBITOR

> <s_pdb_PDB_DEPOSITION_DATE>
28-JUN-12

> <r_pdb_PDB_R>
0.15

> <r_pdb_PDB_Rfree>
0.182

> <r_pdb_PDB_RESOLUTION>
1.6

> <s_pdb_PDB_EXPDTA>
X-RAY DIFFRACTION

> <r_pdb_PDB_EXPDTA_TEMPERATURE>
160

> <r_pdb_PDB_EXPDTA_PH>
4.8

> <s_pdb_PDB_REMARK_350_Biomolecule_1_Transform_1_Chains>
A

> <s_pdb_PDB_REMARK_350_Biomolecule_1_Transform_1_Matrix_1>
1.000000 0.000000 0.000000   0.000000;0.000000 1.000000 0.000000   0.000000;0.000000 0.000000 1.000000   0.000000

> <s_m_subgroup_title>
ligands

> <s_m_subgroupid>
ligands1

> <b_m_subgroup_collapsed>
0

$$$$
chembl_68
                    3D
 Schrodinger Suite 2021-4.
 42 44  0  0  1  0            999 V2000
  -10.6420  -19.4310    7.1010 N   0  3  0  0  0  0
   -9.3340  -19.6590    7.0840 C   0  0  0  0  0  0
   -8.9760  -20.8840    6.7010 N   0  0  0  0  0  0
   -8.3820  -18.5960    7.4370 C   0  0  0  0  0  0
   -8.7740  -17.5940    8.3500 C   0  0  0  0  0  0
   -7.8830  -16.5670    8.7010 C   0  0  0  0  0  0
   -6.5860  -16.5330    8.1540 C   0  0  0  0  0  0
   -5.7040  -15.5160    8.5630 C   0  0  0  0  0  0
   -4.4040  -15.4600    8.0390 C   0  0  0  0  0  0
   -3.9850  -16.4180    7.1010 C   0  0  0  0  0  0
   -4.8590  -17.4440    6.6620 C   0  0  0  0  0  0
   -4.4230  -18.4190    5.7150 N   0  0  0  0  0  0
   -3.4420  -18.2730    4.7380 C   0  0  0  0  0  0
   -2.6950  -17.3130    4.5540 O   0  0  0  0  0  0
   -3.4420  -19.3770    3.9760 O   0  0  0  0  0  0
   -2.6850  -19.4310    2.7740 C   0  0  0  0  0  0
   -1.4420  -20.2890    2.9060 C   0  0  0  0  0  0
   -1.3630  -21.5250    2.2310 C   0  0  0  0  0  0
   -0.1980  -22.3100    2.3270 C   0  0  0  0  0  0
    0.8910  -21.8630    3.1010 C   0  0  0  0  0  0
    0.8130  -20.6310    3.7800 C   0  0  0  0  0  0
   -0.3510  -19.8440    3.6820 C   0  0  0  0  0  0
   -6.1730  -17.5150    7.2120 C   0  0  0  0  0  0
   -7.0920  -18.5370    6.8570 C   0  0  0  0  0  0
  -10.9930  -18.5260    7.3800 H   0  0  0  0  0  0
  -11.2860  -20.1620    6.8340 H   0  0  0  0  0  0
   -7.9980  -21.1350    6.6620 H   0  0  0  0  0  0
   -9.6820  -21.5610    6.4490 H   0  0  0  0  0  0
   -9.7630  -17.6140    8.7830 H   0  0  0  0  0  0
   -8.1910  -15.7980    9.3940 H   0  0  0  0  0  0
   -6.0270  -14.7770    9.2810 H   0  0  0  0  0  0
   -3.7260  -14.6820    8.3580 H   0  0  0  0  0  0
   -2.9830  -16.3800    6.7010 H   0  0  0  0  0  0
   -4.8390  -19.3390    5.7090 H   0  0  0  0  0  0
   -2.3990  -18.4210    2.4800 H   0  0  0  0  0  0
   -3.3100  -19.8200    1.9700 H   0  0  0  0  0  0
   -2.1970  -21.8710    1.6390 H   0  0  0  0  0  0
   -0.1390  -23.2550    1.8070 H   0  0  0  0  0  0
    1.7850  -22.4640    3.1740 H   0  0  0  0  0  0
    1.6470  -20.2890    4.3760 H   0  0  0  0  0  0
   -0.4080  -18.9000    4.2020 H   0  0  0  0  0  0
   -6.7930  -19.2770    6.1300 H   0  0  0  0  0  0
  1  2  2  0  0  0
  1 25  1  0  0  0
  1 26  1  0  0  0
  2  3  1  0  0  0
  2  4  1  0  0  0
  3 27  1  0  0  0
  3 28  1  0  0  0
  4 24  2  0  0  0
  4  5  1  0  0  0
  5  6  2  0  0  0
  5 29  1  0  0  0
  6  7  1  0  0  0
  6 30  1  0  0  0
  7 23  2  0  0  0
  7  8  1  0  0  0
  8  9  2  0  0  0
  8 31  1  0  0  0
  9 10  1  0  0  0
  9 32  1  0  0  0
 10 11  2  0  0  0
 10 33  1  0  0  0
 11 12  1  0  0  0
 11 23  1  0  0  0
 12 13  1  0  0  0
 12 34  1  0  0  0
 13 14  2  0  0  0
 13 15  1  0  0  0
 15 16  1  0  0  0
 16 17  1  0  0  0
 16 35  1  0  0  0
 16 36  1  0  0  0
 17 22  2  0  0  0
 17 18  1  0  0  0
 18 19  2  0  0  0
 18 37  1  0  0  0
 19 20  1  0  0  0
 19 38  1  0  0  0
 20 21  2  0  0  0
 20 39  1  0  0  0
 21 22  1  0  0  0
 21 40  1  0  0  0
 22 41  1  0  0  0
 23 24  1  0  0  0
 24 42  1  0  0  0
M  CHG  1   1   1
M  END
> <s_m_entry_id>
173

> <s_m_entry_name>
4FU9_chembl_68.1

> <s_pdb_PDB_TITLE>
CRYSTAL STRUCTURE OF THE UROKINASE

> <s_pdb_PDB_format_version>
3.30

> <s_m_Source_Path>
/Users/mmunicoy/Documents/NBD/Projects/JJ/urokinase

> <s_m_Source_File>
4FU9_chembl_68.pdb

> <i_m_Source_File_Index>
1

> <s_pdb_PDB_ID>
4FU9

> <r_pdb_PDB_CRYST1_a>
55.1

> <r_pdb_PDB_CRYST1_b>
52.4

> <r_pdb_PDB_CRYST1_c>
80.25

> <r_pdb_PDB_CRYST1_alpha>
90

> <r_pdb_PDB_CRYST1_beta>
90

> <r_pdb_PDB_CRYST1_gamma>
90

> <s_pdb_PDB_CRYST1_Space_Group>
P 21 21 21

> <i_pdb_PDB_CRYST1_z>
4

> <s_pdb_PDB_CLASSIFICATION>
HYDROLASE/HYDROLASE INHIBITOR

> <s_pdb_PDB_DEPOSITION_DATE>
28-JUN-12

> <r_pdb_PDB_R>
0.15

> <r_pdb_PDB_Rfree>
0.182

> <r_pdb_PDB_RESOLUTION>
1.6

> <s_pdb_PDB_EXPDTA>
X-RAY DIFFRACTION

> <r_pdb_PDB_EXPDTA_TEMPERATURE>
160

> <r_pdb_PDB_EXPDTA_PH>
4.8

> <s_pdb_PDB_REMARK_350_Biomolecule_1_Transform_1_Chains>
A

> <s_pdb_PDB_REMARK_350_Biomolecule_1_Transform_1_Matrix_1>
1.000000 0.000000 0.000000   0.000000;0.000000 1.000000 0.000000   0.000000;0.000000 0.000000 1.000000   0.000000

> <s_m_subgroup_title>
ligands

> <s_m_subgroupid>
ligands1

> <b_m_subgroup_collapsed>
0

$$$$
chembl_69
                    3D
 Schrodinger Suite 2021-4.
 48 50  0  0  1  0            999 V2000
    1.7930   -9.3630    9.9010 C   0  0  0  0  0  0
    0.2950   -9.0430    9.8380 C   0  0  0  0  0  0
   -0.1520   -8.2870   11.0990 C   0  0  0  0  0  0
   -0.3900  -10.2900    9.7230 O   0  0  0  0  0  0
   -1.6380  -10.3440    9.1350 C   0  0  0  0  0  0
   -2.4000   -9.2090    8.7640 C   0  0  0  0  0  0
   -3.6680   -9.3660    8.1750 C   0  0  0  0  0  0
   -4.1930  -10.6510    7.9510 C   0  0  0  0  0  0
   -3.4470  -11.7940    8.3010 C   0  0  0  0  0  0
   -4.0490  -13.0600    8.0670 N   0  0  0  0  0  0
   -3.4690  -14.2660    7.9160 C   0  0  0  0  0  0
   -2.2570  -14.4710    7.9170 O   0  0  0  0  0  0
   -4.4330  -15.3810    7.6280 C   0  0  0  0  0  0
   -4.0860  -16.3890    6.7010 C   0  0  0  0  0  0
   -4.9860  -17.4310    6.4040 C   0  0  0  0  0  0
   -6.2390  -17.4870    7.0470 C   0  0  0  0  0  0
   -7.1430  -18.5270    6.7510 C   0  0  0  0  0  0
   -8.3890  -18.5990    7.4070 C   0  0  0  0  0  0
   -9.3400  -19.6670    7.0810 C   0  0  0  0  0  0
   -8.9850  -20.8940    6.7010 N   0  3  0  0  0  0
  -10.6420  -19.4310    7.1010 N   0  0  0  0  0  0
   -8.7350  -17.6010    8.3470 C   0  0  0  0  0  0
   -7.8390  -16.5540    8.6390 C   0  0  0  0  0  0
   -6.5870  -16.4940    7.9950 C   0  0  0  0  0  0
   -5.6830  -15.4530    8.2870 C   0  0  0  0  0  0
   -2.1760  -11.6290    8.9040 C   0  0  0  0  0  0
    2.0890   -9.8990    8.9990 H   0  0  0  0  0  0
    2.3610   -8.4350    9.9750 H   0  0  0  0  0  0
    1.9970   -9.9830   10.7740 H   0  0  0  0  0  0
    0.0910   -8.4340    8.9580 H   0  0  0  0  0  0
   -1.2190   -8.0700   11.0340 H   0  0  0  0  0  0
    0.0400   -8.9010   11.9790 H   0  0  0  0  0  0
    0.4040   -7.3530   11.1800 H   0  0  0  0  0  0
   -2.0080   -8.2170    8.9310 H   0  0  0  0  0  0
   -4.2440   -8.4960    7.8940 H   0  0  0  0  0  0
   -5.1720  -10.7640    7.5100 H   0  0  0  0  0  0
   -5.0530  -13.1360    7.9940 H   0  0  0  0  0  0
   -3.1230  -16.3650    6.2130 H   0  0  0  0  0  0
   -4.7170  -18.1880    5.6830 H   0  0  0  0  0  0
   -6.8830  -19.2750    6.0170 H   0  0  0  0  0  0
   -9.6940  -21.5830    6.4920 H   0  0  0  0  0  0
   -8.0070  -21.1360    6.6220 H   0  0  0  0  0  0
  -11.2930  -20.1700    6.8760 H   0  0  0  0  0  0
  -10.9850  -18.5120    7.3410 H   0  0  0  0  0  0
   -9.6920  -17.6380    8.8460 H   0  0  0  0  0  0
   -8.1120  -15.7950    9.3580 H   0  0  0  0  0  0
   -5.9490  -14.7060    9.0200 H   0  0  0  0  0  0
   -1.6160  -12.5070    9.1880 H   0  0  0  0  0  0
  1  2  1  0  0  0
  1 27  1  0  0  0
  1 28  1  0  0  0
  1 29  1  0  0  0
  2  3  1  0  0  0
  2  4  1  0  0  0
  2 30  1  0  0  0
  3 31  1  0  0  0
  3 32  1  0  0  0
  3 33  1  0  0  0
  4  5  1  0  0  0
  5 26  2  0  0  0
  5  6  1  0  0  0
  6  7  2  0  0  0
  6 34  1  0  0  0
  7  8  1  0  0  0
  7 35  1  0  0  0
  8  9  2  0  0  0
  8 36  1  0  0  0
  9 10  1  0  0  0
  9 26  1  0  0  0
 10 11  1  0  0  0
 10 37  1  0  0  0
 11 12  2  0  0  0
 11 13  1  0  0  0
 13 25  2  0  0  0
 13 14  1  0  0  0
 14 15  2  0  0  0
 14 38  1  0  0  0
 15 16  1  0  0  0
 15 39  1  0  0  0
 16 24  2  0  0  0
 16 17  1  0  0  0
 17 18  2  0  0  0
 17 40  1  0  0  0
 18 19  1  0  0  0
 18 22  1  0  0  0
 19 20  2  0  0  0
 19 21  1  0  0  0
 20 41  1  0  0  0
 20 42  1  0  0  0
 21 43  1  0  0  0
 21 44  1  0  0  0
 22 23  2  0  0  0
 22 45  1  0  0  0
 23 24  1  0  0  0
 23 46  1  0  0  0
 24 25  1  0  0  0
 25 47  1  0  0  0
 26 48  1  0  0  0
M  CHG  1  20   1
M  END
> <s_m_entry_id>
174

> <s_m_entry_name>
4FU9_chembl_69.1

> <s_pdb_PDB_TITLE>
CRYSTAL STRUCTURE OF THE UROKINASE

> <s_pdb_PDB_format_version>
3.30

> <s_m_Source_Path>
/Users/mmunicoy/Documents/NBD/Projects/JJ/urokinase

> <s_m_Source_File>
4FU9_chembl_69.pdb

> <i_m_Source_File_Index>
1

> <s_pdb_PDB_ID>
4FU9

> <r_pdb_PDB_CRYST1_a>
55.1

> <r_pdb_PDB_CRYST1_b>
52.4

> <r_pdb_PDB_CRYST1_c>
80.25

> <r_pdb_PDB_CRYST1_alpha>
90

> <r_pdb_PDB_CRYST1_beta>
90

> <r_pdb_PDB_CRYST1_gamma>
90

> <s_pdb_PDB_CRYST1_Space_Group>
P 21 21 21

> <i_pdb_PDB_CRYST1_z>
4

> <s_pdb_PDB_CLASSIFICATION>
HYDROLASE/HYDROLASE INHIBITOR

> <s_pdb_PDB_DEPOSITION_DATE>
28-JUN-12

> <r_pdb_PDB_R>
0.15

> <r_pdb_PDB_Rfree>
0.182

> <r_pdb_PDB_RESOLUTION>
1.6

> <s_pdb_PDB_EXPDTA>
X-RAY DIFFRACTION

> <r_pdb_PDB_EXPDTA_TEMPERATURE>
160

> <r_pdb_PDB_EXPDTA_PH>
4.8

> <s_pdb_PDB_REMARK_350_Biomolecule_1_Transform_1_Chains>
A

> <s_pdb_PDB_REMARK_350_Biomolecule_1_Transform_1_Matrix_1>
1.000000 0.000000 0.000000   0.000000;0.000000 1.000000 0.000000   0.000000;0.000000 0.000000 1.000000   0.000000

> <s_m_subgroup_title>
ligands

> <s_m_subgroupid>
ligands1

> <b_m_subgroup_collapsed>
0

$$$$
chembl_70
                    3D
 Schrodinger Suite 2021-4.
 29 30  0  0  1  0            999 V2000
  -10.6420  -19.4310    7.1010 N   0  3  0  0  0  0
   -9.3280  -19.6310    7.0920 C   0  0  0  0  0  0
   -8.9300  -20.8410    6.7010 N   0  0  0  0  0  0
   -8.4130  -18.5510    7.4800 C   0  0  0  0  0  0
   -8.8610  -17.6040    8.4240 C   0  0  0  0  0  0
   -8.0210  -16.5590    8.8290 C   0  0  0  0  0  0
   -6.7200  -16.4560    8.3090 C   0  0  0  0  0  0
   -5.8910  -15.4310    8.7970 C   0  0  0  0  0  0
   -4.6100  -15.2360    8.2640 C   0  0  0  0  0  0
   -4.1430  -16.1000    7.2640 C   0  0  0  0  0  0
   -4.9300  -17.1830    6.8140 C   0  0  0  0  0  0
   -4.2820  -18.0960    5.8220 C   0  0  0  0  0  0
   -3.9490  -17.6870    4.7080 O   0  0  0  0  0  0
   -3.9300  -19.2940    6.3010 N   0  0  0  0  0  0
   -2.7890  -19.8310    5.6680 O   0  0  0  0  0  0
   -6.2490  -17.3700    7.3290 C   0  0  0  0  0  0
   -7.1180  -18.4170    6.9160 C   0  0  0  0  0  0
  -11.0140  -18.5370    7.3860 H   0  0  0  0  0  0
  -11.2680  -20.1730    6.8230 H   0  0  0  0  0  0
   -7.9450  -21.0630    6.6700 H   0  0  0  0  0  0
   -9.6120  -21.5370    6.4360 H   0  0  0  0  0  0
   -9.8560  -17.6830    8.8390 H   0  0  0  0  0  0
   -8.3720  -15.8290    9.5430 H   0  0  0  0  0  0
   -6.2400  -14.7860    9.5900 H   0  0  0  0  0  0
   -3.9940  -14.4260    8.6240 H   0  0  0  0  0  0
   -3.1690  -15.9430    6.8270 H   0  0  0  0  0  0
   -4.4680  -19.7190    7.0420 H   0  0  0  0  0  0
   -2.5840  -20.6870    6.0500 H   0  0  0  0  0  0
   -6.7810  -19.1150    6.1640 H   0  0  0  0  0  0
  1  2  2  0  0  0
  1 18  1  0  0  0
  1 19  1  0  0  0
  2  3  1  0  0  0
  2  4  1  0  0  0
  3 20  1  0  0  0
  3 21  1  0  0  0
  4 17  2  0  0  0
  4  5  1  0  0  0
  5  6  2  0  0  0
  5 22  1  0  0  0
  6  7  1  0  0  0
  6 23  1  0  0  0
  7 16  2  0  0  0
  7  8  1  0  0  0
  8  9  2  0  0  0
  8 24  1  0  0  0
  9 10  1  0  0  0
  9 25  1  0  0  0
 10 11  2  0  0  0
 10 26  1  0  0  0
 11 12  1  0  0  0
 11 16  1  0  0  0
 12 13  2  0  0  0
 12 14  1  0  0  0
 14 15  1  0  0  0
 14 27  1  0  0  0
 15 28  1  0  0  0
 16 17  1  0  0  0
 17 29  1  0  0  0
M  CHG  1   1   1
M  END
> <s_m_entry_id>
175

> <s_m_entry_name>
4FU9_chembl_70.1

> <s_pdb_PDB_TITLE>
CRYSTAL STRUCTURE OF THE UROKINASE

> <s_pdb_PDB_format_version>
3.30

> <s_m_Source_Path>
/Users/mmunicoy/Documents/NBD/Projects/JJ/urokinase

> <s_m_Source_File>
4FU9_chembl_70.pdb

> <i_m_Source_File_Index>
1

> <s_pdb_PDB_ID>
4FU9

> <r_pdb_PDB_CRYST1_a>
55.1

> <r_pdb_PDB_CRYST1_b>
52.4

> <r_pdb_PDB_CRYST1_c>
80.25

> <r_pdb_PDB_CRYST1_alpha>
90

> <r_pdb_PDB_CRYST1_beta>
90

> <r_pdb_PDB_CRYST1_gamma>
90

> <s_pdb_PDB_CRYST1_Space_Group>
P 21 21 21

> <i_pdb_PDB_CRYST1_z>
4

> <s_pdb_PDB_CLASSIFICATION>
HYDROLASE/HYDROLASE INHIBITOR

> <s_pdb_PDB_DEPOSITION_DATE>
28-JUN-12

> <r_pdb_PDB_R>
0.15

> <r_pdb_PDB_Rfree>
0.182

> <r_pdb_PDB_RESOLUTION>
1.6

> <s_pdb_PDB_EXPDTA>
X-RAY DIFFRACTION

> <r_pdb_PDB_EXPDTA_TEMPERATURE>
160

> <r_pdb_PDB_EXPDTA_PH>
4.8

> <s_pdb_PDB_REMARK_350_Biomolecule_1_Transform_1_Chains>
A

> <s_pdb_PDB_REMARK_350_Biomolecule_1_Transform_1_Matrix_1>
1.000000 0.000000 0.000000   0.000000;0.000000 1.000000 0.000000   0.000000;0.000000 0.000000 1.000000   0.000000

> <s_m_subgroup_title>
ligands

> <s_m_subgroupid>
ligands1

> <b_m_subgroup_collapsed>
0

$$$$
chembl_71
                    3D
 Schrodinger Suite 2021-4.
 25 26  0  0  1  0            999 V2000
   -9.8420  -19.7310    6.7010 N   0  3  0  0  0  0
   -8.9070  -18.9020    7.4890 C   0  0  2  0  0  0
   -9.4420  -17.4850    7.7190 C   0  0  0  0  0  0
   -8.4950  -16.6310    8.5730 C   0  0  0  0  0  0
   -7.0300  -16.7680    8.1980 C   0  0  0  0  0  0
   -6.1060  -15.8300    8.7010 C   0  0  0  0  0  0
   -4.7390  -15.9300    8.3800 C   0  0  0  0  0  0
   -4.2870  -16.9760    7.5550 C   0  0  0  0  0  0
   -5.2030  -17.9220    7.0560 C   0  0  0  0  0  0
   -6.5730  -17.8260    7.3780 C   0  0  0  0  0  0
   -7.5290  -18.8600    6.8150 C   0  0  0  0  0  0
  -10.7430  -19.7480    7.1570 H   0  0  0  0  0  0
   -9.9410  -19.3400    5.7750 H   0  0  0  0  0  0
   -9.4820  -20.6720    6.6320 H   0  0  0  0  0  0
   -8.7850  -19.3740    8.4640 H   0  0  0  0  0  0
  -10.4160  -17.5400    8.2050 H   0  0  0  0  0  0
   -9.6020  -16.9970    6.7580 H   0  0  0  0  0  0
   -8.6240  -16.8900    9.6240 H   0  0  0  0  0  0
   -8.7890  -15.5840    8.5030 H   0  0  0  0  0  0
   -6.4450  -15.0270    9.3380 H   0  0  0  0  0  0
   -4.0390  -15.2050    8.7680 H   0  0  0  0  0  0
   -3.2390  -17.0530    7.3040 H   0  0  0  0  0  0
   -4.8580  -18.7260    6.4230 H   0  0  0  0  0  0
   -7.6550  -18.6910    5.7460 H   0  0  0  0  0  0
   -7.0690  -19.8470    6.8750 H   0  0  0  0  0  0
  1  2  1  0  0  0
  1 12  1  0  0  0
  1 13  1  0  0  0
  1 14  1  0  0  0
  2 11  1  0  0  0
  2  3  1  0  0  0
  2 15  1  0  0  0
  3  4  1  0  0  0
  3 16  1  0  0  0
  3 17  1  0  0  0
  4  5  1  0  0  0
  4 18  1  0  0  0
  4 19  1  0  0  0
  5 10  2  0  0  0
  5  6  1  0  0  0
  6  7  2  0  0  0
  6 20  1  0  0  0
  7  8  1  0  0  0
  7 21  1  0  0  0
  8  9  2  0  0  0
  8 22  1  0  0  0
  9 10  1  0  0  0
  9 23  1  0  0  0
 10 11  1  0  0  0
 11 24  1  0  0  0
 11 25  1  0  0  0
M  CHG  1   1   1
M  END
> <s_m_entry_id>
176

> <s_m_entry_name>
4FU9_chembl_71.1

> <s_pdb_PDB_TITLE>
CRYSTAL STRUCTURE OF THE UROKINASE

> <s_pdb_PDB_format_version>
3.30

> <s_m_Source_Path>
/Users/mmunicoy/Documents/NBD/Projects/JJ/urokinase

> <s_m_Source_File>
4FU9_chembl_71.pdb

> <i_m_Source_File_Index>
1

> <s_pdb_PDB_ID>
4FU9

> <r_pdb_PDB_CRYST1_a>
55.1

> <r_pdb_PDB_CRYST1_b>
52.4

> <r_pdb_PDB_CRYST1_c>
80.25

> <r_pdb_PDB_CRYST1_alpha>
90

> <r_pdb_PDB_CRYST1_beta>
90

> <r_pdb_PDB_CRYST1_gamma>
90

> <s_pdb_PDB_CRYST1_Space_Group>
P 21 21 21

> <i_pdb_PDB_CRYST1_z>
4

> <s_pdb_PDB_CLASSIFICATION>
HYDROLASE/HYDROLASE INHIBITOR

> <s_pdb_PDB_DEPOSITION_DATE>
28-JUN-12

> <r_pdb_PDB_R>
0.15

> <r_pdb_PDB_Rfree>
0.182

> <r_pdb_PDB_RESOLUTION>
1.6

> <s_pdb_PDB_EXPDTA>
X-RAY DIFFRACTION

> <r_pdb_PDB_EXPDTA_TEMPERATURE>
160

> <r_pdb_PDB_EXPDTA_PH>
4.8

> <s_pdb_PDB_REMARK_350_Biomolecule_1_Transform_1_Chains>
A

> <s_pdb_PDB_REMARK_350_Biomolecule_1_Transform_1_Matrix_1>
1.000000 0.000000 0.000000   0.000000;0.000000 1.000000 0.000000   0.000000;0.000000 0.000000 1.000000   0.000000

> <s_m_subgroup_title>
ligands

> <s_m_subgroupid>
ligands1

> <b_m_subgroup_collapsed>
0

$$$$
chembl_73
                    3D
 Schrodinger Suite 2021-4.
 46 48  0  0  1  0            999 V2000
   -8.6420  -20.7930    6.7000 N   0  3  0  0  0  0
   -9.0810  -19.5830    7.0550 C   0  0  0  0  0  0
  -10.4040  -19.4300    7.1010 N   0  0  0  0  0  0
   -8.1720  -18.4690    7.3690 C   0  0  0  0  0  0
   -8.5070  -17.5140    8.3560 C   0  0  0  0  0  0
   -7.5960  -16.4930    8.7010 C   0  0  0  0  0  0
   -6.3450  -16.4060    8.0530 C   0  0  0  0  0  0
   -5.3980  -15.4290    8.4320 C   0  0  0  0  0  0
   -4.1580  -15.3270    7.7550 C   0  0  0  0  0  0
   -3.1200  -14.3610    8.1560 C   0  0  0  0  0  0
   -2.8860  -13.9580    9.4200 C   0  0  0  0  0  0
   -1.8920  -12.9560    9.8500 C   0  0  0  0  0  0
   -1.3580  -11.9860    8.9710 C   0  0  0  0  0  0
   -0.4500  -11.0120    9.4380 C   0  0  0  0  0  0
   -0.0530  -10.9920   10.7950 C   0  0  0  0  0  0
    0.8890   -9.9220   11.3520 C   0  0  1  0  0  0
    2.2410  -10.2310   11.1010 O   0  0  0  0  0  0
    0.6570   -8.4930   10.8200 C   0  0  0  0  0  0
   -0.6420   -8.0140   11.1010 O   0  0  0  0  0  0
   -0.5420  -11.9960   11.6580 C   0  0  0  0  0  0
   -1.4420  -12.9750   11.1880 C   0  0  0  0  0  0
   -3.8770  -16.2250    6.7040 C   0  0  0  0  0  0
   -4.8040  -17.2200    6.3410 C   0  0  0  0  0  0
   -6.0330  -17.3210    7.0220 C   0  0  0  0  0  0
   -6.9430  -18.3410    6.6880 C   0  0  0  0  0  0
   -7.6500  -20.9750    6.6470 H   0  0  0  0  0  0
   -9.3020  -21.5270    6.4860 H   0  0  0  0  0  0
  -10.8010  -18.5390    7.3620 H   0  0  0  0  0  0
  -11.0090  -20.2060    6.8740 H   0  0  0  0  0  0
   -9.4650  -17.5630    8.8520 H   0  0  0  0  0  0
   -7.8550  -15.7730    9.4630 H   0  0  0  0  0  0
   -5.6150  -14.7510    9.2440 H   0  0  0  0  0  0
   -2.4760  -13.9190    7.4090 H   0  0  0  0  0  0
   -3.4570  -14.3790   10.2350 H   0  0  0  0  0  0
   -1.6450  -11.9850    7.9290 H   0  0  0  0  0  0
   -0.0530  -10.2740    8.7570 H   0  0  0  0  0  0
    0.7540   -9.8960   12.4330 H   0  0  0  0  0  0
    2.8010   -9.5400   11.4640 H   0  0  0  0  0  0
    0.8250   -8.4750    9.7430 H   0  0  0  0  0  0
    1.3940   -7.8190   11.2580 H   0  0  0  0  0  0
   -0.7380   -7.1250   10.7520 H   0  0  0  0  0  0
   -0.2270  -12.0200   12.6910 H   0  0  0  0  0  0
   -1.7860  -13.7440   11.8630 H   0  0  0  0  0  0
   -2.9420  -16.1540    6.1680 H   0  0  0  0  0  0
   -4.5740  -17.9070    5.5400 H   0  0  0  0  0  0
   -6.6890  -19.0320    5.8970 H   0  0  0  0  0  0
  1  2  2  0  0  0
  1 26  1  0  0  0
  1 27  1  0  0  0
  2  3  1  0  0  0
  2  4  1  0  0  0
  3 28  1  0  0  0
  3 29  1  0  0  0
  4 25  2  0  0  0
  4  5  1  0  0  0
  5  6  2  0  0  0
  5 30  1  0  0  0
  6  7  1  0  0  0
  6 31  1  0  0  0
  7 24  2  0  0  0
  7  8  1  0  0  0
  8  9  2  0  0  0
  8 32  1  0  0  0
  9 10  1  0  0  0
  9 22  1  0  0  0
 10 11  2  0  0  0
 10 33  1  0  0  0
 11 12  1  0  0  0
 11 34  1  0  0  0
 12 21  2  0  0  0
 12 13  1  0  0  0
 13 14  2  0  0  0
 13 35  1  0  0  0
 14 15  1  0  0  0
 14 36  1  0  0  0
 15 16  1  0  0  0
 15 20  2  0  0  0
 16 17  1  0  0  0
 16 18  1  0  0  0
 16 37  1  0  0  0
 17 38  1  0  0  0
 18 19  1  0  0  0
 18 39  1  0  0  0
 18 40  1  0  0  0
 19 41  1  0  0  0
 20 21  1  0  0  0
 20 42  1  0  0  0
 21 43  1  0  0  0
 22 23  2  0  0  0
 22 44  1  0  0  0
 23 24  1  0  0  0
 23 45  1  0  0  0
 24 25  1  0  0  0
 25 46  1  0  0  0
M  CHG  1   1   1
M  END
> <s_m_entry_id>
177

> <s_m_entry_name>
4FU9_chembl_73.1

> <s_pdb_PDB_TITLE>
CRYSTAL STRUCTURE OF THE UROKINASE

> <s_pdb_PDB_format_version>
3.30

> <s_m_Source_Path>
/Users/mmunicoy/Documents/NBD/Projects/JJ/urokinase

> <s_m_Source_File>
4FU9_chembl_73.pdb

> <i_m_Source_File_Index>
1

> <s_pdb_PDB_ID>
4FU9

> <r_pdb_PDB_CRYST1_a>
55.1

> <r_pdb_PDB_CRYST1_b>
52.4

> <r_pdb_PDB_CRYST1_c>
80.25

> <r_pdb_PDB_CRYST1_alpha>
90

> <r_pdb_PDB_CRYST1_beta>
90

> <r_pdb_PDB_CRYST1_gamma>
90

> <s_pdb_PDB_CRYST1_Space_Group>
P 21 21 21

> <i_pdb_PDB_CRYST1_z>
4

> <s_pdb_PDB_CLASSIFICATION>
HYDROLASE/HYDROLASE INHIBITOR

> <s_pdb_PDB_DEPOSITION_DATE>
28-JUN-12

> <r_pdb_PDB_R>
0.15

> <r_pdb_PDB_Rfree>
0.182

> <r_pdb_PDB_RESOLUTION>
1.6

> <s_pdb_PDB_EXPDTA>
X-RAY DIFFRACTION

> <r_pdb_PDB_EXPDTA_TEMPERATURE>
160

> <r_pdb_PDB_EXPDTA_PH>
4.8

> <s_pdb_PDB_REMARK_350_Biomolecule_1_Transform_1_Chains>
A

> <s_pdb_PDB_REMARK_350_Biomolecule_1_Transform_1_Matrix_1>
1.000000 0.000000 0.000000   0.000000;0.000000 1.000000 0.000000   0.000000;0.000000 0.000000 1.000000   0.000000

> <s_m_subgroup_title>
ligands

> <s_m_subgroupid>
ligands1

> <b_m_subgroup_collapsed>
0

$$$$
chembl_76
                    3D
 Schrodinger Suite 2021-4.
 41 43  0  0  1  0            999 V2000
   -9.0420  -20.8020    6.3010 N   0  3  0  0  0  0
   -9.3490  -19.6440    6.8800 C   0  0  0  0  0  0
  -10.6420  -19.4310    7.1010 N   0  0  0  0  0  0
   -8.3560  -18.6670    7.2710 C   0  0  0  0  0  0
   -6.9980  -18.6780    7.0420 C   0  0  0  0  0  0
   -6.3150  -17.5920    7.7090 C   0  0  0  0  0  0
   -4.9300  -17.2870    7.8460 C   0  0  0  0  0  0
   -4.0390  -18.1680    7.2550 O   0  0  0  0  0  0
   -2.6160  -17.9860    7.3420 C   0  0  1  0  0  0
   -2.1890  -16.7410    6.5080 C   0  0  0  0  0  0
   -0.8230  -16.8200    5.9530 N   0  3  0  0  0  0
   -2.0160  -18.1430    8.7560 C   0  0  0  0  0  0
   -2.8080  -18.6460    9.8160 C   0  0  0  0  0  0
   -2.2710  -18.8470   11.1010 C   0  0  0  0  0  0
   -0.9200  -18.5540   11.3510 C   0  0  0  0  0  0
   -0.1140  -18.0590   10.3110 C   0  0  0  0  0  0
   -0.6550  -17.8590    9.0250 C   0  0  0  0  0  0
   -4.5220  -16.1690    8.6180 C   0  0  0  0  0  0
   -5.4630  -15.3430    9.2420 C   0  0  0  0  0  0
   -6.8280  -15.6210    9.1010 C   0  0  0  0  0  0
   -7.2450  -16.7250    8.3570 C   0  0  0  0  0  0
   -8.8940  -17.2670    8.1520 S   0  0  0  0  0  0
   -8.0690  -21.0310    6.1120 H   0  0  0  0  0  0
  -11.3490  -20.0630    6.7010 H   0  0  0  0  0  0
  -10.9300  -18.5290    7.4640 H   0  0  0  0  0  0
   -6.4620  -19.4310    6.4920 H   0  0  0  0  0  0
   -2.2380  -18.8540    6.8020 H   0  0  0  0  0  0
   -2.8600  -16.6450    5.6530 H   0  0  0  0  0  0
   -2.2760  -15.8120    7.0690 H   0  0  0  0  0  0
   -0.6430  -15.9930    5.4000 H   0  0  0  0  0  0
   -0.1460  -16.8590    6.7000 H   0  0  0  0  0  0
   -3.8420  -18.9070    9.6520 H   0  0  0  0  0  0
   -2.8920  -19.2400   11.8940 H   0  0  0  0  0  0
   -0.5000  -18.7230   12.3330 H   0  0  0  0  0  0
    0.9280  -17.8430   10.4990 H   0  0  0  0  0  0
    0.0110  -17.5000    8.2600 H   0  0  0  0  0  0
   -3.4860  -15.9370    8.7970 H   0  0  0  0  0  0
   -5.1440  -14.5140    9.8570 H   0  0  0  0  0  0
   -7.5660  -15.0310    9.6210 H   0  0  0  0  0  0
   -9.7990  -21.3490    5.8320 H   0  0  0  0  0  0
   -0.7300  -17.6390    5.3700 H   0  0  0  0  0  0
  1  2  2  0  0  0
  1 23  1  0  0  0
  1 40  1  0  0  0
  2  3  1  0  0  0
  2  4  1  0  0  0
  3 24  1  0  0  0
  3 25  1  0  0  0
  4 22  1  0  0  0
  4  5  2  0  0  0
  5  6  1  0  0  0
  5 26  1  0  0  0
  6 21  2  0  0  0
  6  7  1  0  0  0
  7  8  1  0  0  0
  7 18  2  0  0  0
  8  9  1  0  0  0
  9 10  1  0  0  0
  9 12  1  0  0  0
  9 27  1  0  0  0
 10 11  1  0  0  0
 10 28  1  0  0  0
 10 29  1  0  0  0
 11 30  1  0  0  0
 11 31  1  0  0  0
 11 41  1  0  0  0
 12 17  2  0  0  0
 12 13  1  0  0  0
 13 14  2  0  0  0
 13 32  1  0  0  0
 14 15  1  0  0  0
 14 33  1  0  0  0
 15 16  2  0  0  0
 15 34  1  0  0  0
 16 17  1  0  0  0
 16 35  1  0  0  0
 17 36  1  0  0  0
 18 19  1  0  0  0
 18 37  1  0  0  0
 19 20  2  0  0  0
 19 38  1  0  0  0
 20 21  1  0  0  0
 20 39  1  0  0  0
 21 22  1  0  0  0
M  CHG  2   1   1  11   1
M  END
> <s_m_entry_id>
178

> <s_m_entry_name>
4FU9_chembl_76.1

> <s_pdb_PDB_TITLE>
CRYSTAL STRUCTURE OF THE UROKINASE

> <s_pdb_PDB_format_version>
3.30

> <s_m_Source_Path>
/Users/mmunicoy/Documents/NBD/Projects/JJ/urokinase

> <s_m_Source_File>
4FU9_chembl_76.pdb

> <i_m_Source_File_Index>
1

> <s_pdb_PDB_ID>
4FU9

> <r_pdb_PDB_CRYST1_a>
55.1

> <r_pdb_PDB_CRYST1_b>
52.4

> <r_pdb_PDB_CRYST1_c>
80.25

> <r_pdb_PDB_CRYST1_alpha>
90

> <r_pdb_PDB_CRYST1_beta>
90

> <r_pdb_PDB_CRYST1_gamma>
90

> <s_pdb_PDB_CRYST1_Space_Group>
P 21 21 21

> <i_pdb_PDB_CRYST1_z>
4

> <s_pdb_PDB_CLASSIFICATION>
HYDROLASE/HYDROLASE INHIBITOR

> <s_pdb_PDB_DEPOSITION_DATE>
28-JUN-12

> <r_pdb_PDB_R>
0.15

> <r_pdb_PDB_Rfree>
0.182

> <r_pdb_PDB_RESOLUTION>
1.6

> <s_pdb_PDB_EXPDTA>
X-RAY DIFFRACTION

> <r_pdb_PDB_EXPDTA_TEMPERATURE>
160

> <r_pdb_PDB_EXPDTA_PH>
4.8

> <s_pdb_PDB_REMARK_350_Biomolecule_1_Transform_1_Chains>
A

> <s_pdb_PDB_REMARK_350_Biomolecule_1_Transform_1_Matrix_1>
1.000000 0.000000 0.000000   0.000000;0.000000 1.000000 0.000000   0.000000;0.000000 0.000000 1.000000   0.000000

> <s_m_subgroup_title>
ligands

> <s_m_subgroupid>
ligands1

> <b_m_subgroup_collapsed>
0

$$$$
chembl_77
                    3D
 Schrodinger Suite 2021-4.
 45 47  0  0  1  0            999 V2000
   -1.8210  -20.0690    9.9350 C   0  0  0  0  0  0
   -1.8420  -20.2280    8.4190 C   0  0  0  0  0  0
   -1.4390  -21.2710    7.9010 O   0  0  0  0  0  0
   -2.3340  -19.2030    7.7120 N   0  0  0  0  0  0
   -2.3940  -19.1770    6.2590 C   0  0  0  0  0  0
   -2.8870  -17.8200    5.7180 C   0  0  2  0  0  0
   -4.3140  -17.7920    5.8570 O   0  0  0  0  0  0
   -4.9450  -17.1210    6.8880 C   0  0  0  0  0  0
   -4.3580  -16.0600    7.6220 C   0  0  0  0  0  0
   -5.0820  -15.4000    8.6300 C   0  0  0  0  0  0
   -6.4080  -15.7720    8.9020 C   0  0  0  0  0  0
   -7.0020  -16.8130    8.1730 C   0  0  0  0  0  0
   -8.6430  -17.4290    8.3280 S   0  0  0  0  0  0
   -8.3320  -18.6700    7.1510 C   0  0  0  0  0  0
   -9.3520  -19.6510    6.8510 C   0  0  0  0  0  0
   -9.0420  -20.8240    6.3010 N   0  3  0  0  0  0
  -10.6420  -19.4310    7.1010 N   0  0  0  0  0  0
   -7.0890  -18.5680    6.5740 C   0  0  0  0  0  0
   -6.2830  -17.5220    7.1600 C   0  0  0  0  0  0
   -2.4790  -17.6730    4.2560 C   0  0  0  0  0  0
   -3.4390  -17.7180    3.2230 C   0  0  0  0  0  0
   -3.0420  -17.6260    1.8780 C   0  0  0  0  0  0
   -1.6800  -17.4980    1.5490 C   0  0  0  0  0  0
   -0.7160  -17.4330    2.5730 C   0  0  0  0  0  0
   -1.1160  -17.5130    3.9210 C   0  0  0  0  0  0
   -2.2130  -19.0880   10.2020 H   0  0  0  0  0  0
   -2.4380  -20.8430   10.3900 H   0  0  0  0  0  0
   -0.7970  -20.1620   10.2960 H   0  0  0  0  0  0
   -2.6930  -18.3870    8.1880 H   0  0  0  0  0  0
   -3.0550  -19.9690    5.9090 H   0  0  0  0  0  0
   -1.4050  -19.3910    5.8520 H   0  0  0  0  0  0
   -2.4480  -17.0120    6.3020 H   0  0  0  0  0  0
   -3.3450  -15.7520    7.4100 H   0  0  0  0  0  0
   -4.6190  -14.6050    9.1960 H   0  0  0  0  0  0
   -6.9660  -15.2570    9.6690 H   0  0  0  0  0  0
   -9.7690  -21.4950    6.1000 H   0  0  0  0  0  0
   -8.0800  -21.0420    6.0850 H   0  0  0  0  0  0
  -11.3270  -20.1390    6.8780 H   0  0  0  0  0  0
  -10.9350  -18.5560    7.5120 H   0  0  0  0  0  0
   -6.8100  -19.2340    5.7710 H   0  0  0  0  0  0
   -4.4860  -17.8240    3.4640 H   0  0  0  0  0  0
   -3.7830  -17.6540    1.0930 H   0  0  0  0  0  0
   -1.3770  -17.4490    0.5130 H   0  0  0  0  0  0
    0.3290  -17.3220    2.3250 H   0  0  0  0  0  0
   -0.3720  -17.4520    4.7010 H   0  0  0  0  0  0
  1  2  1  0  0  0
  1 26  1  0  0  0
  1 27  1  0  0  0
  1 28  1  0  0  0
  2  3  2  0  0  0
  2  4  1  0  0  0
  4  5  1  0  0  0
  4 29  1  0  0  0
  5  6  1  0  0  0
  5 30  1  0  0  0
  5 31  1  0  0  0
  6  7  1  0  0  0
  6 20  1  0  0  0
  6 32  1  0  0  0
  7  8  1  0  0  0
  8 19  2  0  0  0
  8  9  1  0  0  0
  9 10  2  0  0  0
  9 33  1  0  0  0
 10 11  1  0  0  0
 10 34  1  0  0  0
 11 12  2  0  0  0
 11 35  1  0  0  0
 12 19  1  0  0  0
 12 13  1  0  0  0
 13 14  1  0  0  0
 14 15  1  0  0  0
 14 18  2  0  0  0
 15 16  2  0  0  0
 15 17  1  0  0  0
 16 36  1  0  0  0
 16 37  1  0  0  0
 17 38  1  0  0  0
 17 39  1  0  0  0
 18 19  1  0  0  0
 18 40  1  0  0  0
 20 25  2  0  0  0
 20 21  1  0  0  0
 21 22  2  0  0  0
 21 41  1  0  0  0
 22 23  1  0  0  0
 22 42  1  0  0  0
 23 24  2  0  0  0
 23 43  1  0  0  0
 24 25  1  0  0  0
 24 44  1  0  0  0
 25 45  1  0  0  0
M  CHG  1  16   1
M  END
> <s_m_entry_id>
179

> <s_m_entry_name>
4FU9_chembl_77.1

> <s_pdb_PDB_TITLE>
CRYSTAL STRUCTURE OF THE UROKINASE

> <s_pdb_PDB_format_version>
3.30

> <s_m_Source_Path>
/Users/mmunicoy/Documents/NBD/Projects/JJ/urokinase

> <s_m_Source_File>
4FU9_chembl_77.pdb

> <i_m_Source_File_Index>
1

> <s_pdb_PDB_ID>
4FU9

> <r_pdb_PDB_CRYST1_a>
55.1

> <r_pdb_PDB_CRYST1_b>
52.4

> <r_pdb_PDB_CRYST1_c>
80.25

> <r_pdb_PDB_CRYST1_alpha>
90

> <r_pdb_PDB_CRYST1_beta>
90

> <r_pdb_PDB_CRYST1_gamma>
90

> <s_pdb_PDB_CRYST1_Space_Group>
P 21 21 21

> <i_pdb_PDB_CRYST1_z>
4

> <s_pdb_PDB_CLASSIFICATION>
HYDROLASE/HYDROLASE INHIBITOR

> <s_pdb_PDB_DEPOSITION_DATE>
28-JUN-12

> <r_pdb_PDB_R>
0.15

> <r_pdb_PDB_Rfree>
0.182

> <r_pdb_PDB_RESOLUTION>
1.6

> <s_pdb_PDB_EXPDTA>
X-RAY DIFFRACTION

> <r_pdb_PDB_EXPDTA_TEMPERATURE>
160

> <r_pdb_PDB_EXPDTA_PH>
4.8

> <s_pdb_PDB_REMARK_350_Biomolecule_1_Transform_1_Chains>
A

> <s_pdb_PDB_REMARK_350_Biomolecule_1_Transform_1_Matrix_1>
1.000000 0.000000 0.000000   0.000000;0.000000 1.000000 0.000000   0.000000;0.000000 0.000000 1.000000   0.000000

> <s_m_subgroup_title>
ligands

> <s_m_subgroupid>
ligands1

> <b_m_subgroup_collapsed>
0

$$$$
chembl_93
                    3D
 Schrodinger Suite 2021-4.
 41 43  0  0  1  0            999 V2000
   -1.8420  -19.5980    9.2650 C   0  0  0  0  0  0
   -2.2770  -18.6600    8.2960 O   0  0  0  0  0  0
   -2.3940  -19.0310    7.0100 C   0  0  0  0  0  0
   -2.1700  -20.1640    6.5700 O   0  0  0  0  0  0
   -2.8640  -17.8690    6.1150 C   0  0  2  0  0  0
   -4.2920  -17.8210    6.1370 O   0  0  0  0  0  0
   -4.9670  -17.1390    7.1280 C   0  0  0  0  0  0
   -4.4010  -16.0950    7.9030 C   0  0  0  0  0  0
   -5.1720  -15.4280    8.8710 C   0  0  0  0  0  0
   -6.5160  -15.7820    9.0640 C   0  0  0  0  0  0
   -7.0810  -16.8160    8.3010 C   0  0  0  0  0  0
   -8.7270  -17.4250    8.3710 S   0  0  0  0  0  0
   -8.3530  -18.6730    7.2160 C   0  0  0  0  0  0
   -9.3540  -19.6520    6.8700 C   0  0  0  0  0  0
  -10.6420  -19.4310    7.1010 N   0  3  0  0  0  0
   -9.0420  -20.8140    6.3010 N   0  0  0  0  0  0
   -7.0860  -18.5740    6.7000 C   0  0  0  0  0  0
   -6.3160  -17.5280    7.3280 C   0  0  0  0  0  0
   -2.3420  -17.9790    4.6860 C   0  0  0  0  0  0
   -3.2050  -18.3300    3.6250 C   0  0  0  0  0  0
   -2.7300  -18.3760    2.3010 C   0  0  0  0  0  0
   -1.3790  -18.0900    2.0260 C   0  0  0  0  0  0
   -0.5080  -17.7520    3.0800 C   0  0  0  0  0  0
   -0.9880  -17.6910    4.4030 C   0  0  0  0  0  0
   -1.8080  -19.1200   10.2440 H   0  0  0  0  0  0
   -2.5350  -20.4380    9.2950 H   0  0  0  0  0  0
   -0.8470  -19.9570    9.0020 H   0  0  0  0  0  0
   -2.4880  -16.9390    6.5420 H   0  0  0  0  0  0
   -3.3720  -15.8070    7.7500 H   0  0  0  0  0  0
   -4.7290  -14.6430    9.4660 H   0  0  0  0  0  0
   -7.1110  -15.2600    9.7980 H   0  0  0  0  0  0
  -11.3270  -20.1300    6.8510 H   0  0  0  0  0  0
  -10.9370  -18.5640    7.5270 H   0  0  0  0  0  0
   -9.7700  -21.4760    6.0720 H   0  0  0  0  0  0
   -8.0770  -21.0340    6.0980 H   0  0  0  0  0  0
   -6.7700  -19.2410    5.9120 H   0  0  0  0  0  0
   -4.2390  -18.5670    3.8260 H   0  0  0  0  0  0
   -3.4010  -18.6300    1.4950 H   0  0  0  0  0  0
   -1.0150  -18.1310    1.0100 H   0  0  0  0  0  0
    0.5310  -17.5370    2.8740 H   0  0  0  0  0  0
   -0.3150  -17.4240    5.2040 H   0  0  0  0  0  0
  1  2  1  0  0  0
  1 25  1  0  0  0
  1 26  1  0  0  0
  1 27  1  0  0  0
  2  3  1  0  0  0
  3  4  2  0  0  0
  3  5  1  0  0  0
  5  6  1  0  0  0
  5 19  1  0  0  0
  5 28  1  0  0  0
  6  7  1  0  0  0
  7 18  2  0  0  0
  7  8  1  0  0  0
  8  9  2  0  0  0
  8 29  1  0  0  0
  9 10  1  0  0  0
  9 30  1  0  0  0
 10 11  2  0  0  0
 10 31  1  0  0  0
 11 18  1  0  0  0
 11 12  1  0  0  0
 12 13  1  0  0  0
 13 14  1  0  0  0
 13 17  2  0  0  0
 14 15  2  0  0  0
 14 16  1  0  0  0
 15 32  1  0  0  0
 15 33  1  0  0  0
 16 34  1  0  0  0
 16 35  1  0  0  0
 17 18  1  0  0  0
 17 36  1  0  0  0
 19 24  2  0  0  0
 19 20  1  0  0  0
 20 21  2  0  0  0
 20 37  1  0  0  0
 21 22  1  0  0  0
 21 38  1  0  0  0
 22 23  2  0  0  0
 22 39  1  0  0  0
 23 24  1  0  0  0
 23 40  1  0  0  0
 24 41  1  0  0  0
M  CHG  1  15   1
M  END
> <s_m_entry_id>
180

> <s_m_entry_name>
4FU9_chembl_93.1

> <s_pdb_PDB_TITLE>
CRYSTAL STRUCTURE OF THE UROKINASE

> <s_pdb_PDB_format_version>
3.30

> <s_m_Source_Path>
/Users/mmunicoy/Documents/NBD/Projects/JJ/urokinase

> <s_m_Source_File>
4FU9_chembl_93.pdb

> <i_m_Source_File_Index>
1

> <s_pdb_PDB_ID>
4FU9

> <r_pdb_PDB_CRYST1_a>
55.1

> <r_pdb_PDB_CRYST1_b>
52.4

> <r_pdb_PDB_CRYST1_c>
80.25

> <r_pdb_PDB_CRYST1_alpha>
90

> <r_pdb_PDB_CRYST1_beta>
90

> <r_pdb_PDB_CRYST1_gamma>
90

> <s_pdb_PDB_CRYST1_Space_Group>
P 21 21 21

> <i_pdb_PDB_CRYST1_z>
4

> <s_pdb_PDB_CLASSIFICATION>
HYDROLASE/HYDROLASE INHIBITOR

> <s_pdb_PDB_DEPOSITION_DATE>
28-JUN-12

> <r_pdb_PDB_R>
0.15

> <r_pdb_PDB_Rfree>
0.182

> <r_pdb_PDB_RESOLUTION>
1.6

> <s_pdb_PDB_EXPDTA>
X-RAY DIFFRACTION

> <r_pdb_PDB_EXPDTA_TEMPERATURE>
160

> <r_pdb_PDB_EXPDTA_PH>
4.8

> <s_pdb_PDB_REMARK_350_Biomolecule_1_Transform_1_Chains>
A

> <s_pdb_PDB_REMARK_350_Biomolecule_1_Transform_1_Matrix_1>
1.000000 0.000000 0.000000   0.000000;0.000000 1.000000 0.000000   0.000000;0.000000 0.000000 1.000000   0.000000

> <s_m_subgroup_title>
ligands

> <s_m_subgroupid>
ligands1

> <b_m_subgroup_collapsed>
0

$$$$
chembl_100
                    3D
 Schrodinger Suite 2021-4.
 50 53  0  0  1  0            999 V2000
  -10.6420  -19.4310    7.1010 N   0  3  0  0  0  0
   -9.3360  -19.6480    7.0840 C   0  0  0  0  0  0
   -8.9630  -20.8680    6.7010 N   0  0  0  0  0  0
   -8.4000  -18.5700    7.4180 C   0  0  0  0  0  0
   -8.7530  -17.6000    8.3840 C   0  0  0  0  0  0
   -7.8660  -16.5520    8.7010 C   0  0  0  0  0  0
   -6.6170  -16.4650    8.0550 C   0  0  0  0  0  0
   -5.7160  -15.4310    8.3830 C   0  0  0  0  0  0
   -4.4690  -15.3390    7.7310 C   0  0  0  0  0  0
   -3.5130  -14.2080    8.0710 C   0  0  0  0  0  0
   -2.9340  -14.3170    9.4970 C   0  0  0  0  0  0
   -1.9440  -13.2270    9.9010 C   0  0  0  0  0  0
   -1.5620  -12.1850    9.0240 C   0  0  0  0  0  0
   -0.6250  -11.2170    9.4330 C   0  0  0  0  0  0
   -0.0560  -11.2720   10.7210 C   0  0  0  0  0  0
   -0.4460  -12.3000   11.6120 C   0  0  0  0  0  0
   -1.3820  -13.2710   11.1960 C   0  0  0  0  0  0
    0.1850  -12.3990   12.9930 C   0  0  0  0  0  0
    0.9080  -11.1110   13.4130 C   0  0  0  0  0  0
    1.7580  -10.6310   12.3100 N   0  3  0  0  0  0
    0.9630  -10.2150   11.1370 C   0  0  0  0  0  0
   -4.1240  -16.2940    6.7510 C   0  0  0  0  0  0
   -5.0190  -17.3300    6.4200 C   0  0  0  0  0  0
   -6.2660  -17.4220    7.0720 C   0  0  0  0  0  0
   -7.1610  -18.4620    6.7500 C   0  0  0  0  0  0
  -11.0000  -18.5290    7.3810 H   0  0  0  0  0  0
  -11.2800  -20.1670    6.8350 H   0  0  0  0  0  0
   -7.9820  -21.1080    6.6630 H   0  0  0  0  0  0
   -9.6600  -21.5540    6.4490 H   0  0  0  0  0  0
   -9.7080  -17.6580    8.8850 H   0  0  0  0  0  0
   -8.1440  -15.8150    9.4400 H   0  0  0  0  0  0
   -5.9800  -14.7040    9.1370 H   0  0  0  0  0  0
   -4.0270  -13.2530    7.9620 H   0  0  0  0  0  0
   -2.6960  -14.1950    7.3490 H   0  0  0  0  0  0
   -2.4640  -15.2930    9.6200 H   0  0  0  0  0  0
   -3.7520  -14.3450   10.2160 H   0  0  0  0  0  0
   -1.9900  -12.1280    8.0340 H   0  0  0  0  0  0
   -0.3380  -10.4250    8.7580 H   0  0  0  0  0  0
   -1.6680  -14.0550   11.8810 H   0  0  0  0  0  0
    0.8890  -13.2310   13.0110 H   0  0  0  0  0  0
   -0.5850  -12.6380   13.7270 H   0  0  0  0  0  0
    1.5260  -11.3100   14.2880 H   0  0  0  0  0  0
    0.1720  -10.3470   13.6630 H   0  0  0  0  0  0
    2.4000  -11.3620   12.0380 H   0  0  0  0  0  0
    2.3160   -9.8530   12.6300 H   0  0  0  0  0  0
    0.4460   -9.2820   11.3610 H   0  0  0  0  0  0
    1.6310  -10.0070   10.3010 H   0  0  0  0  0  0
   -3.1700  -16.2320    6.2490 H   0  0  0  0  0  0
   -4.7510  -18.0560    5.6670 H   0  0  0  0  0  0
   -6.8940  -19.1790    5.9880 H   0  0  0  0  0  0
  1  2  2  0  0  0
  1 26  1  0  0  0
  1 27  1  0  0  0
  2  3  1  0  0  0
  2  4  1  0  0  0
  3 28  1  0  0  0
  3 29  1  0  0  0
  4 25  2  0  0  0
  4  5  1  0  0  0
  5  6  2  0  0  0
  5 30  1  0  0  0
  6  7  1  0  0  0
  6 31  1  0  0  0
  7 24  2  0  0  0
  7  8  1  0  0  0
  8  9  2  0  0  0
  8 32  1  0  0  0
  9 10  1  0  0  0
  9 22  1  0  0  0
 10 11  1  0  0  0
 10 33  1  0  0  0
 10 34  1  0  0  0
 11 12  1  0  0  0
 11 35  1  0  0  0
 11 36  1  0  0  0
 12 17  2  0  0  0
 12 13  1  0  0  0
 13 14  2  0  0  0
 13 37  1  0  0  0
 14 15  1  0  0  0
 14 38  1  0  0  0
 15 21  1  0  0  0
 15 16  2  0  0  0
 16 17  1  0  0  0
 16 18  1  0  0  0
 17 39  1  0  0  0
 18 19  1  0  0  0
 18 40  1  0  0  0
 18 41  1  0  0  0
 19 20  1  0  0  0
 19 42  1  0  0  0
 19 43  1  0  0  0
 20 21  1  0  0  0
 20 44  1  0  0  0
 20 45  1  0  0  0
 21 46  1  0  0  0
 21 47  1  0  0  0
 22 23  2  0  0  0
 22 48  1  0  0  0
 23 24  1  0  0  0
 23 49  1  0  0  0
 24 25  1  0  0  0
 25 50  1  0  0  0
M  CHG  2   1   1  20   1
M  END
> <s_m_entry_id>
181

> <s_m_entry_name>
4FU9_chembl_100.1

> <s_pdb_PDB_TITLE>
CRYSTAL STRUCTURE OF THE UROKINASE

> <s_pdb_PDB_format_version>
3.30

> <s_m_Source_Path>
/Users/mmunicoy/Documents/NBD/Projects/JJ/urokinase

> <s_m_Source_File>
4FU9_chembl_100.pdb

> <i_m_Source_File_Index>
1

> <s_pdb_PDB_ID>
100

> <r_pdb_PDB_CRYST1_a>
55.1

> <r_pdb_PDB_CRYST1_b>
52.4

> <r_pdb_PDB_CRYST1_c>
80.25

> <r_pdb_PDB_CRYST1_alpha>
90

> <r_pdb_PDB_CRYST1_beta>
90

> <r_pdb_PDB_CRYST1_gamma>
90

> <s_pdb_PDB_CRYST1_Space_Group>
P 21 21 21

> <i_pdb_PDB_CRYST1_z>
4

> <s_pdb_PDB_CLASSIFICATION>
HYDROLASE/HYDROLASE INHIBITOR

> <s_pdb_PDB_DEPOSITION_DATE>
28-JUN-12

> <r_pdb_PDB_R>
0.15

> <r_pdb_PDB_Rfree>
0.182

> <r_pdb_PDB_RESOLUTION>
1.6

> <s_pdb_PDB_EXPDTA>
X-RAY DIFFRACTION

> <r_pdb_PDB_EXPDTA_TEMPERATURE>
160

> <r_pdb_PDB_EXPDTA_PH>
4.8

> <s_pdb_PDB_REMARK_350_Biomolecule_1_Transform_1_Chains>
A

> <s_pdb_PDB_REMARK_350_Biomolecule_1_Transform_1_Matrix_1>
1.000000 0.000000 0.000000   0.000000;0.000000 1.000000 0.000000   0.000000;0.000000 0.000000 1.000000   0.000000

> <s_m_subgroup_title>
ligands

> <s_m_subgroupid>
ligands1

> <b_m_subgroup_collapsed>
0

$$$$
chembl_114
                    3D
 Schrodinger Suite 2021-4.
 24 24  0  0  1  0            999 V2000
   -9.0420  -21.3580    6.7010 N   0  0  0  0  0  0
   -9.1070  -20.0510    6.9650 C   0  0  0  0  0  0
  -10.3220  -19.5020    7.1010 N   0  0  0  0  0  0
   -7.9520  -19.3580    7.0480 N   0  3  0  0  0  0
   -7.8380  -17.9480    7.2920 C   0  0  0  0  0  0
   -8.8290  -17.2560    7.5360 O   0  0  0  0  0  0
   -6.4460  -17.3810    7.2600 C   0  0  0  0  0  0
   -5.5310  -17.8700    6.3010 C   0  0  0  0  0  0
   -4.2330  -17.3390    6.2060 C   0  0  0  0  0  0
   -3.0410  -18.0020    4.8790 Br  0  0  0  0  0  0
   -3.8280  -16.3130    7.0770 C   0  0  0  0  0  0
   -4.7270  -15.8150    8.0380 C   0  0  0  0  0  0
   -6.0340  -16.3360    8.1320 C   0  0  0  0  0  0
   -6.8850  -15.8050    9.1010 N   0  0  0  0  0  0
   -8.1440  -21.8070    6.5920 H   0  0  0  0  0  0
   -9.8910  -21.8980    6.6110 H   0  0  0  0  0  0
  -10.4110  -18.5160    7.3010 H   0  0  0  0  0  0
  -11.1480  -20.0740    7.0040 H   0  0  0  0  0  0
   -7.0690  -19.8340    6.9350 H   0  0  0  0  0  0
   -5.8250  -18.6620    5.6290 H   0  0  0  0  0  0
   -2.8290  -15.9080    7.0070 H   0  0  0  0  0  0
   -4.4180  -15.0290    8.7110 H   0  0  0  0  0  0
   -6.5620  -15.0630    9.7050 H   0  0  0  0  0  0
   -7.8250  -16.1620    9.1990 H   0  0  0  0  0  0
  1  2  1  0  0  0
  1 15  1  0  0  0
  1 16  1  0  0  0
  2  3  1  0  0  0
  2  4  2  0  0  0
  3 17  1  0  0  0
  3 18  1  0  0  0
  4  5  1  0  0  0
  4 19  1  0  0  0
  5  6  2  0  0  0
  5  7  1  0  0  0
  7 13  2  0  0  0
  7  8  1  0  0  0
  8  9  2  0  0  0
  8 20  1  0  0  0
  9 10  1  0  0  0
  9 11  1  0  0  0
 11 12  2  0  0  0
 11 21  1  0  0  0
 12 13  1  0  0  0
 12 22  1  0  0  0
 13 14  1  0  0  0
 14 23  1  0  0  0
 14 24  1  0  0  0
M  CHG  1   4   1
M  END
> <s_m_entry_id>
182

> <s_m_entry_name>
4FU9_chembl_114.1

> <s_pdb_PDB_TITLE>
CRYSTAL STRUCTURE OF THE UROKINASE

> <s_pdb_PDB_format_version>
3.30

> <s_m_Source_Path>
/Users/mmunicoy/Documents/NBD/Projects/JJ/urokinase

> <s_m_Source_File>
4FU9_chembl_114.pdb

> <i_m_Source_File_Index>
1

> <s_pdb_PDB_ID>
4FU9

> <r_pdb_PDB_CRYST1_a>
55.1

> <r_pdb_PDB_CRYST1_b>
52.4

> <r_pdb_PDB_CRYST1_c>
80.25

> <r_pdb_PDB_CRYST1_alpha>
90

> <r_pdb_PDB_CRYST1_beta>
90

> <r_pdb_PDB_CRYST1_gamma>
90

> <s_pdb_PDB_CRYST1_Space_Group>
P 21 21 21

> <i_pdb_PDB_CRYST1_z>
4

> <s_pdb_PDB_CLASSIFICATION>
HYDROLASE/HYDROLASE INHIBITOR

> <s_pdb_PDB_DEPOSITION_DATE>
28-JUN-12

> <r_pdb_PDB_R>
0.15

> <r_pdb_PDB_Rfree>
0.182

> <r_pdb_PDB_RESOLUTION>
1.6

> <s_pdb_PDB_EXPDTA>
X-RAY DIFFRACTION

> <r_pdb_PDB_EXPDTA_TEMPERATURE>
160

> <r_pdb_PDB_EXPDTA_PH>
4.8

> <s_pdb_PDB_REMARK_350_Biomolecule_1_Transform_1_Chains>
A

> <s_pdb_PDB_REMARK_350_Biomolecule_1_Transform_1_Matrix_1>
1.000000 0.000000 0.000000   0.000000;0.000000 1.000000 0.000000   0.000000;0.000000 0.000000 1.000000   0.000000

> <s_m_subgroup_title>
ligands

> <s_m_subgroupid>
ligands1

> <b_m_subgroup_collapsed>
0

$$$$
chembl_115
                    3D
 Schrodinger Suite 2021-4.
 46 48  0  0  1  0            999 V2000
  -10.5170  -19.4310    7.1010 N   0  0  0  0  0  0
   -9.2500  -19.8580    7.0020 C   0  0  0  0  0  0
   -9.0420  -21.1420    6.7010 N   0  3  0  0  0  0
   -8.1680  -19.0720    7.1820 N   0  0  0  0  0  0
   -8.1820  -17.6760    7.5010 C   0  0  0  0  0  0
   -9.2330  -17.0450    7.6120 O   0  0  0  0  0  0
   -6.8500  -17.0570    7.7840 C   0  0  0  0  0  0
   -6.7640  -15.9950    8.7010 C   0  0  0  0  0  0
   -5.5180  -15.4310    9.0110 C   0  0  0  0  0  0
   -4.3340  -15.8810    8.3840 C   0  0  0  0  0  0
   -3.0390  -15.2550    8.7260 C   0  0  0  0  0  0
   -2.7790  -14.5820    9.8650 C   0  0  0  0  0  0
   -1.5280  -13.8860   10.2090 C   0  0  0  0  0  0
   -0.4510  -13.7460    9.3040 C   0  0  0  0  0  0
    0.7160  -13.0540    9.6850 C   0  0  0  0  0  0
    0.8200  -12.4970   10.9730 C   0  0  0  0  0  0
   -0.2440  -12.6370   11.8830 C   0  0  0  0  0  0
   -1.4070  -13.3310   11.5010 C   0  0  0  0  0  0
   -4.4180  -16.9500    7.4530 C   0  0  0  0  0  0
   -3.2540  -17.4830    6.8800 N   0  0  0  0  0  0
   -2.9140  -17.9120    5.6160 C   0  0  0  0  0  0
   -3.8240  -17.8310    4.6460 N   0  0  0  0  0  0
   -3.4420  -18.2310    3.4170 C   0  0  0  0  0  0
   -2.1460  -18.7110    3.1630 C   0  0  0  0  0  0
   -1.2730  -18.7470    4.2640 C   0  0  0  0  0  0
   -1.6630  -18.3500    5.4920 N   0  0  0  0  0  0
   -5.6740  -17.5230    7.1540 C   0  0  0  0  0  0
  -10.7090  -18.4650    7.3270 H   0  0  0  0  0  0
  -11.2800  -20.0750    6.9500 H   0  0  0  0  0  0
   -8.0990  -21.4950    6.6190 H   0  0  0  0  0  0
   -9.8270  -21.7600    6.5560 H   0  0  0  0  0  0
   -7.2410  -19.4620    7.0930 H   0  0  0  0  0  0
   -7.6590  -15.6120    9.1680 H   0  0  0  0  0  0
   -5.4500  -14.6380    9.7400 H   0  0  0  0  0  0
   -2.2100  -15.3180    8.0360 H   0  0  0  0  0  0
   -3.5310  -14.5170   10.6370 H   0  0  0  0  0  0
   -0.5190  -14.1710    8.3130 H   0  0  0  0  0  0
    1.5340  -12.9500    8.9870 H   0  0  0  0  0  0
    1.7140  -11.9640   11.2610 H   0  0  0  0  0  0
   -0.1670  -12.2120   12.8730 H   0  0  0  0  0  0
   -2.2140  -13.4370   12.2120 H   0  0  0  0  0  0
   -2.4290  -17.6180    7.4460 H   0  0  0  0  0  0
   -4.1400  -18.1870    2.5940 H   0  0  0  0  0  0
   -1.8720  -19.0260    2.1660 H   0  0  0  0  0  0
   -0.2600  -19.0990    4.1390 H   0  0  0  0  0  0
   -5.7290  -18.3270    6.4350 H   0  0  0  0  0  0
  1  2  1  0  0  0
  1 28  1  0  0  0
  1 29  1  0  0  0
  2  3  2  0  0  0
  2  4  1  0  0  0
  3 30  1  0  0  0
  3 31  1  0  0  0
  4  5  1  0  0  0
  4 32  1  0  0  0
  5  6  2  0  0  0
  5  7  1  0  0  0
  7 27  2  0  0  0
  7  8  1  0  0  0
  8  9  2  0  0  0
  8 33  1  0  0  0
  9 10  1  0  0  0
  9 34  1  0  0  0
 10 11  1  0  0  0
 10 19  2  0  0  0
 11 12  2  0  0  0
 11 35  1  0  0  0
 12 13  1  0  0  0
 12 36  1  0  0  0
 13 18  2  0  0  0
 13 14  1  0  0  0
 14 15  2  0  0  0
 14 37  1  0  0  0
 15 16  1  0  0  0
 15 38  1  0  0  0
 16 17  2  0  0  0
 16 39  1  0  0  0
 17 18  1  0  0  0
 17 40  1  0  0  0
 18 41  1  0  0  0
 19 20  1  0  0  0
 19 27  1  0  0  0
 20 21  1  0  0  0
 20 42  1  0  0  0
 21 26  2  0  0  0
 21 22  1  0  0  0
 22 23  2  0  0  0
 23 24  1  0  0  0
 23 43  1  0  0  0
 24 25  2  0  0  0
 24 44  1  0  0  0
 25 26  1  0  0  0
 25 45  1  0  0  0
 27 46  1  0  0  0
M  CHG  1   3   1
M  END
> <s_m_entry_id>
183

> <s_m_entry_name>
4FU9_chembl_115.1

> <s_pdb_PDB_TITLE>
CRYSTAL STRUCTURE OF THE UROKINASE

> <s_pdb_PDB_format_version>
3.30

> <s_m_Source_Path>
/Users/mmunicoy/Documents/NBD/Projects/JJ/urokinase

> <s_m_Source_File>
4FU9_chembl_115.pdb

> <i_m_Source_File_Index>
1

> <s_pdb_PDB_ID>
4FU9

> <r_pdb_PDB_CRYST1_a>
55.1

> <r_pdb_PDB_CRYST1_b>
52.4

> <r_pdb_PDB_CRYST1_c>
80.25

> <r_pdb_PDB_CRYST1_alpha>
90

> <r_pdb_PDB_CRYST1_beta>
90

> <r_pdb_PDB_CRYST1_gamma>
90

> <s_pdb_PDB_CRYST1_Space_Group>
P 21 21 21

> <i_pdb_PDB_CRYST1_z>
4

> <s_pdb_PDB_CLASSIFICATION>
HYDROLASE/HYDROLASE INHIBITOR

> <s_pdb_PDB_DEPOSITION_DATE>
28-JUN-12

> <r_pdb_PDB_R>
0.15

> <r_pdb_PDB_Rfree>
0.182

> <r_pdb_PDB_RESOLUTION>
1.6

> <s_pdb_PDB_EXPDTA>
X-RAY DIFFRACTION

> <r_pdb_PDB_EXPDTA_TEMPERATURE>
160

> <r_pdb_PDB_EXPDTA_PH>
4.8

> <s_pdb_PDB_REMARK_350_Biomolecule_1_Transform_1_Chains>
A

> <s_pdb_PDB_REMARK_350_Biomolecule_1_Transform_1_Matrix_1>
1.000000 0.000000 0.000000   0.000000;0.000000 1.000000 0.000000   0.000000;0.000000 0.000000 1.000000   0.000000

> <s_m_subgroup_title>
ligands

> <s_m_subgroupid>
ligands1

> <b_m_subgroup_collapsed>
0

$$$$
chembl_116
                    3D
 Schrodinger Suite 2021-4.
 24 25  0  0  1  0            999 V2000
   -8.9810  -20.8910    6.7010 N   0  3  0  0  0  0
   -9.3400  -19.6640    7.0780 C   0  0  0  0  0  0
  -10.6420  -19.4310    7.1010 N   0  0  0  0  0  0
   -8.3930  -18.5950    7.4030 C   0  0  0  0  0  0
   -8.7260  -17.6240    8.3750 C   0  0  0  0  0  0
   -7.8240  -16.5880    8.6870 C   0  0  0  0  0  0
   -6.5800  -16.5140    8.0290 C   0  0  0  0  0  0
   -5.6580  -15.4990    8.3580 C   0  0  0  0  0  0
   -4.4180  -15.4310    7.6940 C   0  0  0  0  0  0
   -4.0960  -16.3760    6.7010 C   0  0  0  0  0  0
   -5.0130  -17.3930    6.3690 C   0  0  0  0  0  0
   -6.2520  -17.4700    7.0350 C   0  0  0  0  0  0
   -7.1630  -18.4980    6.7200 C   0  0  0  0  0  0
   -8.0030  -21.1410    6.6600 H   0  0  0  0  0  0
   -9.6870  -21.5710    6.4560 H   0  0  0  0  0  0
  -10.9870  -18.5230    7.3770 H   0  0  0  0  0  0
  -11.2910  -20.1610    6.8430 H   0  0  0  0  0  0
   -9.6770  -17.6730    8.8840 H   0  0  0  0  0  0
   -8.0870  -15.8500    9.4310 H   0  0  0  0  0  0
   -5.9020  -14.7740    9.1200 H   0  0  0  0  0  0
   -3.7130  -14.6530    7.9460 H   0  0  0  0  0  0
   -3.1450  -16.3230    6.1920 H   0  0  0  0  0  0
   -4.7650  -18.1140    5.6030 H   0  0  0  0  0  0
   -6.9150  -19.2130    5.9500 H   0  0  0  0  0  0
  1  2  2  0  0  0
  1 14  1  0  0  0
  1 15  1  0  0  0
  2  3  1  0  0  0
  2  4  1  0  0  0
  3 16  1  0  0  0
  3 17  1  0  0  0
  4 13  2  0  0  0
  4  5  1  0  0  0
  5  6  2  0  0  0
  5 18  1  0  0  0
  6  7  1  0  0  0
  6 19  1  0  0  0
  7 12  2  0  0  0
  7  8  1  0  0  0
  8  9  2  0  0  0
  8 20  1  0  0  0
  9 10  1  0  0  0
  9 21  1  0  0  0
 10 11  2  0  0  0
 10 22  1  0  0  0
 11 12  1  0  0  0
 11 23  1  0  0  0
 12 13  1  0  0  0
 13 24  1  0  0  0
M  CHG  1   1   1
M  END
> <s_m_entry_id>
184

> <s_m_entry_name>
4FU9_chembl_116.1

> <s_pdb_PDB_TITLE>
CRYSTAL STRUCTURE OF THE UROKINASE

> <s_pdb_PDB_format_version>
3.30

> <s_m_Source_Path>
/Users/mmunicoy/Documents/NBD/Projects/JJ/urokinase

> <s_m_Source_File>
4FU9_chembl_116.pdb

> <i_m_Source_File_Index>
1

> <s_pdb_PDB_ID>
4FU9

> <r_pdb_PDB_CRYST1_a>
55.1

> <r_pdb_PDB_CRYST1_b>
52.4

> <r_pdb_PDB_CRYST1_c>
80.25

> <r_pdb_PDB_CRYST1_alpha>
90

> <r_pdb_PDB_CRYST1_beta>
90

> <r_pdb_PDB_CRYST1_gamma>
90

> <s_pdb_PDB_CRYST1_Space_Group>
P 21 21 21

> <i_pdb_PDB_CRYST1_z>
4

> <s_pdb_PDB_CLASSIFICATION>
HYDROLASE/HYDROLASE INHIBITOR

> <s_pdb_PDB_DEPOSITION_DATE>
28-JUN-12

> <r_pdb_PDB_R>
0.15

> <r_pdb_PDB_Rfree>
0.182

> <r_pdb_PDB_RESOLUTION>
1.6

> <s_pdb_PDB_EXPDTA>
X-RAY DIFFRACTION

> <r_pdb_PDB_EXPDTA_TEMPERATURE>
160

> <r_pdb_PDB_EXPDTA_PH>
4.8

> <s_pdb_PDB_REMARK_350_Biomolecule_1_Transform_1_Chains>
A

> <s_pdb_PDB_REMARK_350_Biomolecule_1_Transform_1_Matrix_1>
1.000000 0.000000 0.000000   0.000000;0.000000 1.000000 0.000000   0.000000;0.000000 0.000000 1.000000   0.000000

> <s_m_subgroup_title>
ligands

> <s_m_subgroupid>
ligands1

> <b_m_subgroup_collapsed>
0

$$$$
chembl_117
                    3D
 Schrodinger Suite 2021-4.
 48 51  0  0  1  0            999 V2000
   -8.9490  -20.8580    6.7010 N   0  3  0  0  0  0
   -9.3330  -19.6460    7.1010 C   0  0  0  0  0  0
  -10.6420  -19.4310    7.1010 N   0  0  0  0  0  0
   -8.4130  -18.5750    7.5010 C   0  0  0  0  0  0
   -8.8880  -17.5540    8.3560 C   0  0  0  0  0  0
   -8.0450  -16.5020    8.7440 C   0  0  0  0  0  0
   -6.7130  -16.4670    8.3010 C   0  0  0  0  0  0
   -5.8690  -15.4310    8.7310 C   0  0  0  0  0  0
   -4.5330  -15.3570    8.3000 C   0  0  0  0  0  0
   -3.7010  -14.2000    8.7650 C   0  0  0  0  0  0
   -4.1580  -13.0570    8.7010 O   0  0  0  0  0  0
   -2.5140  -14.5250    9.3090 N   0  0  0  0  0  0
   -1.6420  -13.6780   10.0490 C   0  0  0  0  0  0
   -0.8840  -14.2680   11.0820 C   0  0  0  0  0  0
   -0.0160  -13.4870   11.8690 C   0  0  0  0  0  0
    0.1150  -12.1040   11.6320 C   0  0  0  0  0  0
   -0.6270  -11.5070   10.5840 C   0  0  0  0  0  0
   -1.4930  -12.2930    9.7940 C   0  0  0  0  0  0
   -0.5120  -10.0130   10.3250 C   0  0  0  0  0  0
    0.7890   -9.4270   10.8930 C   0  0  0  0  0  0
    0.9580   -9.8310   12.3010 N   0  3  0  0  0  0
    1.0960  -11.2930   12.4760 C   0  0  0  0  0  0
   -4.0350  -16.3550    7.4290 C   0  0  0  0  0  0
   -4.8780  -17.4070    7.0010 C   0  0  0  0  0  0
   -6.2210  -17.4720    7.4360 C   0  0  0  0  0  0
   -7.0780  -18.5210    7.0300 C   0  0  0  0  0  0
   -7.9670  -21.0940    6.6750 H   0  0  0  0  0  0
   -9.6390  -21.5410    6.4240 H   0  0  0  0  0  0
  -11.0070  -18.5350    7.3920 H   0  0  0  0  0  0
  -11.2740  -20.1630    6.8100 H   0  0  0  0  0  0
   -9.9060  -17.5800    8.7160 H   0  0  0  0  0  0
   -8.4210  -15.7170    9.3840 H   0  0  0  0  0  0
   -6.2440  -14.6740    9.4030 H   0  0  0  0  0  0
   -2.1550  -15.4640    9.2120 H   0  0  0  0  0  0
   -0.9660  -15.3280   11.2750 H   0  0  0  0  0  0
    0.5560  -13.9480   12.6620 H   0  0  0  0  0  0
   -2.0450  -11.8310    8.9890 H   0  0  0  0  0  0
   -1.3640   -9.5010   10.7710 H   0  0  0  0  0  0
   -0.5550   -9.8270    9.2520 H   0  0  0  0  0  0
    0.7560   -8.3400   10.8280 H   0  0  0  0  0  0
    1.6360   -9.7880   10.3080 H   0  0  0  0  0  0
    0.1710   -9.5020   12.8410 H   0  0  0  0  0  0
    1.7690   -9.3690   12.6880 H   0  0  0  0  0  0
    2.1160  -11.5920   12.2320 H   0  0  0  0  0  0
    0.9630  -11.5450   13.5280 H   0  0  0  0  0  0
   -3.0110  -16.3130    7.0910 H   0  0  0  0  0  0
   -4.4960  -18.1690    6.3370 H   0  0  0  0  0  0
   -6.7110  -19.2830    6.3590 H   0  0  0  0  0  0
  1  2  2  0  0  0
  1 27  1  0  0  0
  1 28  1  0  0  0
  2  3  1  0  0  0
  2  4  1  0  0  0
  3 29  1  0  0  0
  3 30  1  0  0  0
  4 26  2  0  0  0
  4  5  1  0  0  0
  5  6  2  0  0  0
  5 31  1  0  0  0
  6  7  1  0  0  0
  6 32  1  0  0  0
  7 25  2  0  0  0
  7  8  1  0  0  0
  8  9  2  0  0  0
  8 33  1  0  0  0
  9 10  1  0  0  0
  9 23  1  0  0  0
 10 11  2  0  0  0
 10 12  1  0  0  0
 12 13  1  0  0  0
 12 34  1  0  0  0
 13 18  2  0  0  0
 13 14  1  0  0  0
 14 15  2  0  0  0
 14 35  1  0  0  0
 15 16  1  0  0  0
 15 36  1  0  0  0
 16 22  1  0  0  0
 16 17  2  0  0  0
 17 18  1  0  0  0
 17 19  1  0  0  0
 18 37  1  0  0  0
 19 20  1  0  0  0
 19 38  1  0  0  0
 19 39  1  0  0  0
 20 21  1  0  0  0
 20 40  1  0  0  0
 20 41  1  0  0  0
 21 22  1  0  0  0
 21 42  1  0  0  0
 21 43  1  0  0  0
 22 44  1  0  0  0
 22 45  1  0  0  0
 23 24  2  0  0  0
 23 46  1  0  0  0
 24 25  1  0  0  0
 24 47  1  0  0  0
 25 26  1  0  0  0
 26 48  1  0  0  0
M  CHG  2   1   1  21   1
M  END
> <s_m_entry_id>
185

> <s_m_entry_name>
4FU9_chembl_117.1

> <s_pdb_PDB_TITLE>
CRYSTAL STRUCTURE OF THE UROKINASE

> <s_pdb_PDB_format_version>
3.30

> <s_m_Source_Path>
/Users/mmunicoy/Documents/NBD/Projects/JJ/urokinase

> <s_m_Source_File>
4FU9_chembl_117.pdb

> <i_m_Source_File_Index>
1

> <s_pdb_PDB_ID>
4FU9

> <r_pdb_PDB_CRYST1_a>
55.1

> <r_pdb_PDB_CRYST1_b>
52.4

> <r_pdb_PDB_CRYST1_c>
80.25

> <r_pdb_PDB_CRYST1_alpha>
90

> <r_pdb_PDB_CRYST1_beta>
90

> <r_pdb_PDB_CRYST1_gamma>
90

> <s_pdb_PDB_CRYST1_Space_Group>
P 21 21 21

> <i_pdb_PDB_CRYST1_z>
4

> <s_pdb_PDB_CLASSIFICATION>
HYDROLASE/HYDROLASE INHIBITOR

> <s_pdb_PDB_DEPOSITION_DATE>
28-JUN-12

> <r_pdb_PDB_R>
0.15

> <r_pdb_PDB_Rfree>
0.182

> <r_pdb_PDB_RESOLUTION>
1.6

> <s_pdb_PDB_EXPDTA>
X-RAY DIFFRACTION

> <r_pdb_PDB_EXPDTA_TEMPERATURE>
160

> <r_pdb_PDB_EXPDTA_PH>
4.8

> <s_pdb_PDB_REMARK_350_Biomolecule_1_Transform_1_Chains>
A

> <s_pdb_PDB_REMARK_350_Biomolecule_1_Transform_1_Matrix_1>
1.000000 0.000000 0.000000   0.000000;0.000000 1.000000 0.000000   0.000000;0.000000 0.000000 1.000000   0.000000

> <s_m_subgroup_title>
ligands

> <s_m_subgroupid>
ligands1

> <b_m_subgroup_collapsed>
0

$$$$
chembl_118
                    3D
 Schrodinger Suite 2021-4.
 48 51  0  0  1  0            999 V2000
  -10.6420  -19.4310    7.1010 N   0  3  0  0  0  0
   -9.3340  -19.6430    7.0730 C   0  0  0  0  0  0
   -8.9640  -20.8680    6.7010 N   0  0  0  0  0  0
   -8.3860  -18.5680    7.3920 C   0  0  0  0  0  0
   -8.7000  -17.6020    8.3730 C   0  0  0  0  0  0
   -7.7760  -16.5890    8.7010 C   0  0  0  0  0  0
   -6.5250  -16.5290    8.0540 C   0  0  0  0  0  0
   -5.5630  -15.5640    8.4290 C   0  0  0  0  0  0
   -4.3220  -15.4860    7.7530 C   0  0  0  0  0  0
   -3.2650  -14.5400    8.1520 C   0  0  0  0  0  0
   -3.0230  -14.1170    9.4090 C   0  0  0  0  0  0
   -1.9870  -13.1410    9.8040 C   0  0  0  0  0  0
   -1.4830  -12.1800    8.8990 C   0  0  0  0  0  0
   -0.4960  -11.2600    9.3060 C   0  0  0  0  0  0
    0.0220  -11.2970   10.6170 C   0  0  0  0  0  0
   -0.4490  -12.2800   11.5200 C   0  0  0  0  0  0
   -1.4420  -13.1950   11.1070 C   0  0  0  0  0  0
    0.1430  -12.3760   12.9180 C   0  0  0  0  0  0
    0.8320  -11.0770   13.3560 C   0  0  0  0  0  0
    1.7580  -10.6310   12.3010 N   0  3  0  0  0  0
    1.0590  -10.2630   11.0500 C   0  0  0  0  0  0
   -4.0600  -16.3900    6.7010 C   0  0  0  0  0  0
   -5.0020  -17.3740    6.3420 C   0  0  0  0  0  0
   -6.2300  -17.4570    7.0270 C   0  0  0  0  0  0
   -7.1590  -18.4670    6.7010 C   0  0  0  0  0  0
  -11.0010  -18.5270    7.3730 H   0  0  0  0  0  0
  -11.2800  -20.1730    6.8500 H   0  0  0  0  0  0
   -7.9840  -21.1070    6.6550 H   0  0  0  0  0  0
   -9.6630  -21.5570    6.4650 H   0  0  0  0  0  0
   -9.6540  -17.6350    8.8780 H   0  0  0  0  0  0
   -8.0240  -15.8530    9.4520 H   0  0  0  0  0  0
   -5.7720  -14.8790    9.2370 H   0  0  0  0  0  0
   -2.6030  -14.1240    7.4070 H   0  0  0  0  0  0
   -3.6120  -14.4970   10.2300 H   0  0  0  0  0  0
   -1.8540  -12.1450    7.8860 H   0  0  0  0  0  0
   -0.1290  -10.5180    8.6110 H   0  0  0  0  0  0
   -1.7840  -13.9450   11.8050 H   0  0  0  0  0  0
    0.8590  -13.1960   12.9520 H   0  0  0  0  0  0
   -0.6450  -12.6250   13.6280 H   0  0  0  0  0  0
    1.3880  -11.2550   14.2760 H   0  0  0  0  0  0
    0.0800  -10.3070   13.5290 H   0  0  0  0  0  0
    2.4260  -11.3630   12.1090 H   0  0  0  0  0  0
    2.2900   -9.8390   12.6340 H   0  0  0  0  0  0
    0.5740   -9.2950   11.1770 H   0  0  0  0  0  0
    1.7910  -10.1280   10.2530 H   0  0  0  0  0  0
   -3.1270  -16.3330    6.1600 H   0  0  0  0  0  0
   -4.7830  -18.0650    5.5420 H   0  0  0  0  0  0
   -6.9230  -19.1680    5.9140 H   0  0  0  0  0  0
  1  2  2  0  0  0
  1 26  1  0  0  0
  1 27  1  0  0  0
  2  3  1  0  0  0
  2  4  1  0  0  0
  3 28  1  0  0  0
  3 29  1  0  0  0
  4 25  2  0  0  0
  4  5  1  0  0  0
  5  6  2  0  0  0
  5 30  1  0  0  0
  6  7  1  0  0  0
  6 31  1  0  0  0
  7 24  2  0  0  0
  7  8  1  0  0  0
  8  9  2  0  0  0
  8 32  1  0  0  0
  9 10  1  0  0  0
  9 22  1  0  0  0
 10 11  2  0  0  0
 10 33  1  0  0  0
 11 12  1  0  0  0
 11 34  1  0  0  0
 12 17  2  0  0  0
 12 13  1  0  0  0
 13 14  2  0  0  0
 13 35  1  0  0  0
 14 15  1  0  0  0
 14 36  1  0  0  0
 15 21  1  0  0  0
 15 16  2  0  0  0
 16 17  1  0  0  0
 16 18  1  0  0  0
 17 37  1  0  0  0
 18 19  1  0  0  0
 18 38  1  0  0  0
 18 39  1  0  0  0
 19 20  1  0  0  0
 19 40  1  0  0  0
 19 41  1  0  0  0
 20 21  1  0  0  0
 20 42  1  0  0  0
 20 43  1  0  0  0
 21 44  1  0  0  0
 21 45  1  0  0  0
 22 23  2  0  0  0
 22 46  1  0  0  0
 23 24  1  0  0  0
 23 47  1  0  0  0
 24 25  1  0  0  0
 25 48  1  0  0  0
M  CHG  2   1   1  20   1
M  END
> <s_m_entry_id>
186

> <s_m_entry_name>
4FU9_chembl_118.1

> <s_pdb_PDB_TITLE>
CRYSTAL STRUCTURE OF THE UROKINASE

> <s_pdb_PDB_format_version>
3.30

> <s_m_Source_Path>
/Users/mmunicoy/Documents/NBD/Projects/JJ/urokinase

> <s_m_Source_File>
4FU9_chembl_118.pdb

> <i_m_Source_File_Index>
1

> <s_pdb_PDB_ID>
4FU9

> <r_pdb_PDB_CRYST1_a>
55.1

> <r_pdb_PDB_CRYST1_b>
52.4

> <r_pdb_PDB_CRYST1_c>
80.25

> <r_pdb_PDB_CRYST1_alpha>
90

> <r_pdb_PDB_CRYST1_beta>
90

> <r_pdb_PDB_CRYST1_gamma>
90

> <s_pdb_PDB_CRYST1_Space_Group>
P 21 21 21

> <i_pdb_PDB_CRYST1_z>
4

> <s_pdb_PDB_CLASSIFICATION>
HYDROLASE/HYDROLASE INHIBITOR

> <s_pdb_PDB_DEPOSITION_DATE>
28-JUN-12

> <r_pdb_PDB_R>
0.15

> <r_pdb_PDB_Rfree>
0.182

> <r_pdb_PDB_RESOLUTION>
1.6

> <s_pdb_PDB_EXPDTA>
X-RAY DIFFRACTION

> <r_pdb_PDB_EXPDTA_TEMPERATURE>
160

> <r_pdb_PDB_EXPDTA_PH>
4.8

> <s_pdb_PDB_REMARK_350_Biomolecule_1_Transform_1_Chains>
A

> <s_pdb_PDB_REMARK_350_Biomolecule_1_Transform_1_Matrix_1>
1.000000 0.000000 0.000000   0.000000;0.000000 1.000000 0.000000   0.000000;0.000000 0.000000 1.000000   0.000000

> <s_m_subgroup_title>
ligands

> <s_m_subgroupid>
ligands1

> <b_m_subgroup_collapsed>
0

$$$$
chembl_119
                    3D
 Schrodinger Suite 2021-4.
 43 45  0  0  1  0            999 V2000
  -10.6420  -19.4310    7.1010 N   0  3  0  0  0  0
   -9.3380  -19.6640    7.0990 C   0  0  0  0  0  0
   -8.9780  -20.8840    6.7010 N   0  0  0  0  0  0
   -8.3990  -18.6100    7.5010 C   0  0  0  0  0  0
   -8.8670  -17.5440    8.3010 C   0  0  0  0  0  0
   -7.9850  -16.5470    8.7360 C   0  0  0  0  0  0
   -6.6190  -16.6260    8.4150 C   0  0  0  0  0  0
   -5.7390  -15.6820    8.9690 C   0  0  0  0  0  0
   -4.3630  -15.7330    8.6910 C   0  0  0  0  0  0
   -3.5250  -14.6610    9.2370 C   0  0  0  0  0  0
   -2.3160  -14.2910    8.7860 C   0  0  0  0  0  0
   -1.5810  -13.0690    9.2910 C   0  0  0  0  0  0
   -1.4410  -12.0020    8.1870 C   0  0  0  0  0  0
   -2.7100  -11.2060    7.8840 C   0  0  0  0  0  0
   -2.6840   -9.7980    7.8970 C   0  0  0  0  0  0
   -3.8420   -9.0980    7.5160 C   0  0  0  0  0  0
   -4.9880   -9.8310    7.1460 C   0  0  0  0  0  0
   -5.0420  -11.1760    7.1510 N   0  0  0  0  0  0
   -3.9180  -11.8310    7.5010 C   0  0  0  0  0  0
   -3.8790  -16.7330    7.8180 C   0  0  0  0  0  0
   -4.7500  -17.6970    7.2690 C   0  0  0  0  0  0
   -4.0030  -19.0280    6.1250 Br  0  0  0  0  0  0
   -6.1330  -17.6590    7.5770 C   0  0  0  0  0  0
   -7.0410  -18.6330    7.1010 C   0  0  0  0  0  0
  -10.9930  -18.5290    7.3900 H   0  0  0  0  0  0
  -11.2850  -20.1550    6.8130 H   0  0  0  0  0  0
   -8.0000  -21.1380    6.6730 H   0  0  0  0  0  0
   -9.6820  -21.5540    6.4270 H   0  0  0  0  0  0
   -9.9100  -17.4950    8.5800 H   0  0  0  0  0  0
   -8.3540  -15.7160    9.3200 H   0  0  0  0  0  0
   -6.1180  -14.9060    9.6170 H   0  0  0  0  0  0
   -3.8700  -14.0840   10.0830 H   0  0  0  0  0  0
   -1.8220  -14.8770    8.0250 H   0  0  0  0  0  0
   -0.5910  -13.3610    9.6420 H   0  0  0  0  0  0
   -2.1200  -12.6460   10.1380 H   0  0  0  0  0  0
   -1.0850  -12.4750    7.2720 H   0  0  0  0  0  0
   -0.6380  -11.3130    8.4510 H   0  0  0  0  0  0
   -1.7870   -9.2760    8.1950 H   0  0  0  0  0  0
   -3.8430   -8.0180    7.5090 H   0  0  0  0  0  0
   -5.8840   -9.3130    6.8390 H   0  0  0  0  0  0
   -3.9840  -12.9090    7.4750 H   0  0  0  0  0  0
   -2.8290  -16.7660    7.5650 H   0  0  0  0  0  0
   -6.6900  -19.4000    6.4260 H   0  0  0  0  0  0
  1  2  2  0  0  0
  1 25  1  0  0  0
  1 26  1  0  0  0
  2  3  1  0  0  0
  2  4  1  0  0  0
  3 27  1  0  0  0
  3 28  1  0  0  0
  4 24  2  0  0  0
  4  5  1  0  0  0
  5  6  2  0  0  0
  5 29  1  0  0  0
  6  7  1  0  0  0
  6 30  1  0  0  0
  7 23  2  0  0  0
  7  8  1  0  0  0
  8  9  2  0  0  0
  8 31  1  0  0  0
  9 10  1  0  0  0
  9 20  1  0  0  0
 10 11  2  0  0  0
 10 32  1  0  0  0
 11 12  1  0  0  0
 11 33  1  0  0  0
 12 13  1  0  0  0
 12 34  1  0  0  0
 12 35  1  0  0  0
 13 14  1  0  0  0
 13 36  1  0  0  0
 13 37  1  0  0  0
 14 19  2  0  0  0
 14 15  1  0  0  0
 15 16  2  0  0  0
 15 38  1  0  0  0
 16 17  1  0  0  0
 16 39  1  0  0  0
 17 18  2  0  0  0
 17 40  1  0  0  0
 18 19  1  0  0  0
 19 41  1  0  0  0
 20 21  2  0  0  0
 20 42  1  0  0  0
 21 22  1  0  0  0
 21 23  1  0  0  0
 23 24  1  0  0  0
 24 43  1  0  0  0
M  CHG  1   1   1
M  END
> <s_m_entry_id>
187

> <s_m_entry_name>
4FU9_chembl_119.1

> <s_pdb_PDB_TITLE>
CRYSTAL STRUCTURE OF THE UROKINASE

> <s_pdb_PDB_format_version>
3.30

> <s_m_Source_Path>
/Users/mmunicoy/Documents/NBD/Projects/JJ/urokinase

> <s_m_Source_File>
4FU9_chembl_119.pdb

> <i_m_Source_File_Index>
1

> <s_pdb_PDB_ID>
4FU9

> <r_pdb_PDB_CRYST1_a>
55.1

> <r_pdb_PDB_CRYST1_b>
52.4

> <r_pdb_PDB_CRYST1_c>
80.25

> <r_pdb_PDB_CRYST1_alpha>
90

> <r_pdb_PDB_CRYST1_beta>
90

> <r_pdb_PDB_CRYST1_gamma>
90

> <s_pdb_PDB_CRYST1_Space_Group>
P 21 21 21

> <i_pdb_PDB_CRYST1_z>
4

> <s_pdb_PDB_CLASSIFICATION>
HYDROLASE/HYDROLASE INHIBITOR

> <s_pdb_PDB_DEPOSITION_DATE>
28-JUN-12

> <r_pdb_PDB_R>
0.15

> <r_pdb_PDB_Rfree>
0.182

> <r_pdb_PDB_RESOLUTION>
1.6

> <s_pdb_PDB_EXPDTA>
X-RAY DIFFRACTION

> <r_pdb_PDB_EXPDTA_TEMPERATURE>
160

> <r_pdb_PDB_EXPDTA_PH>
4.8

> <s_pdb_PDB_REMARK_350_Biomolecule_1_Transform_1_Chains>
A

> <s_pdb_PDB_REMARK_350_Biomolecule_1_Transform_1_Matrix_1>
1.000000 0.000000 0.000000   0.000000;0.000000 1.000000 0.000000   0.000000;0.000000 0.000000 1.000000   0.000000

> <s_m_subgroup_title>
ligands

> <s_m_subgroupid>
ligands1

> <b_m_subgroup_collapsed>
0

$$$$
chembl_120
                    3D
 Schrodinger Suite 2021-4.
 57 60  0  0  1  0            999 V2000
    1.3360  -10.8410    8.4690 C   0  0  0  0  0  0
    1.3730  -11.0950    9.9910 C   0  0  0  0  0  0
    1.7300  -12.5680   10.2620 C   0  0  0  0  0  0
    0.0890  -10.6620   10.7640 C   0  0  1  0  0  0
    0.3150   -9.3930   11.5010 N   0  3  0  0  0  0
    0.2320   -8.2040   10.6340 C   0  0  0  0  0  0
   -1.1930   -8.0540   10.0790 C   0  0  0  0  0  0
   -1.7760   -9.3620    9.5580 C   0  0  0  0  0  0
   -2.9590   -9.3400    8.7920 C   0  0  0  0  0  0
   -3.5640  -10.5410    8.3720 C   0  0  0  0  0  0
   -2.9930  -11.7880    8.7090 C   0  0  0  0  0  0
   -3.6890  -12.9660    8.3060 N   0  0  0  0  0  0
   -3.2090  -14.2160    8.1540 C   0  0  0  0  0  0
   -2.0220  -14.5230    8.2540 O   0  0  0  0  0  0
   -4.2220  -15.2560    7.7570 C   0  0  0  0  0  0
   -3.8830  -16.2180    6.7800 C   0  0  0  0  0  0
   -4.7990  -17.2230    6.4120 C   0  0  0  0  0  0
   -6.0610  -17.2930    7.0360 C   0  0  0  0  0  0
   -6.9620  -18.3240    6.7000 C   0  0  0  0  0  0
   -8.2090  -18.4400    7.3560 C   0  0  0  0  0  0
   -9.1070  -19.5680    7.0500 C   0  0  0  0  0  0
   -8.6430  -20.7710    6.6990 N   0  3  0  0  0  0
  -10.4360  -19.4310    7.1010 N   0  0  0  0  0  0
   -8.5680  -17.4670    8.3170 C   0  0  0  0  0  0
   -7.6760  -16.4210    8.6450 C   0  0  0  0  0  0
   -6.4130  -16.3390    8.0210 C   0  0  0  0  0  0
   -5.4920  -15.3290    8.3780 C   0  0  0  0  0  0
   -1.8060  -11.8070    9.4860 C   0  0  0  0  0  0
   -1.1850  -10.6030    9.9020 C   0  0  0  0  0  0
    1.0830   -9.7980    8.2800 H   0  0  0  0  0  0
    2.3130  -11.0610    8.0390 H   0  0  0  0  0  0
    0.5850  -11.4850    8.0110 H   0  0  0  0  0  0
    2.1930  -10.4970   10.3870 H   0  0  0  0  0  0
    1.7560  -12.7440   11.3370 H   0  0  0  0  0  0
    0.9800  -13.2140    9.8070 H   0  0  0  0  0  0
    2.7080  -12.7900    9.8350 H   0  0  0  0  0  0
   -0.0870  -11.4280   11.5190 H   0  0  0  0  0  0
    1.2220   -9.4210   11.9460 H   0  0  0  0  0  0
   -0.3610   -9.3120   12.2470 H   0  0  0  0  0  0
    0.9340   -8.3080    9.8070 H   0  0  0  0  0  0
    0.4930   -7.3150   11.2090 H   0  0  0  0  0  0
   -1.1940   -7.3130    9.2790 H   0  0  0  0  0  0
   -1.8440   -7.6520   10.8560 H   0  0  0  0  0  0
   -3.4110   -8.3960    8.5230 H   0  0  0  0  0  0
   -4.4710  -10.5130    7.7860 H   0  0  0  0  0  0
   -4.6750  -12.9220    8.0930 H   0  0  0  0  0  0
   -2.9130  -16.1880    6.3070 H   0  0  0  0  0  0
   -4.5350  -17.9420    5.6500 H   0  0  0  0  0  0
   -6.7030  -19.0390    5.9330 H   0  0  0  0  0  0
   -9.2870  -21.5220    6.4960 H   0  0  0  0  0  0
   -7.6470  -20.9300    6.6360 H   0  0  0  0  0  0
  -11.0340  -20.2160    6.8880 H   0  0  0  0  0  0
  -10.8420  -18.5410    7.3530 H   0  0  0  0  0  0
   -9.5300  -17.5190    8.8050 H   0  0  0  0  0  0
   -7.9600  -15.6790    9.3770 H   0  0  0  0  0  0
   -5.7660  -14.6070    9.1330 H   0  0  0  0  0  0
   -1.3620  -12.7500    9.7690 H   0  0  0  0  0  0
  1  2  1  0  0  0
  1 30  1  0  0  0
  1 31  1  0  0  0
  1 32  1  0  0  0
  2  3  1  0  0  0
  2  4  1  0  0  0
  2 33  1  0  0  0
  3 34  1  0  0  0
  3 35  1  0  0  0
  3 36  1  0  0  0
  4 29  1  0  0  0
  4  5  1  0  0  0
  4 37  1  0  0  0
  5  6  1  0  0  0
  5 38  1  0  0  0
  5 39  1  0  0  0
  6  7  1  0  0  0
  6 40  1  0  0  0
  6 41  1  0  0  0
  7  8  1  0  0  0
  7 42  1  0  0  0
  7 43  1  0  0  0
  8 29  2  0  0  0
  8  9  1  0  0  0
  9 10  2  0  0  0
  9 44  1  0  0  0
 10 11  1  0  0  0
 10 45  1  0  0  0
 11 12  1  0  0  0
 11 28  2  0  0  0
 12 13  1  0  0  0
 12 46  1  0  0  0
 13 14  2  0  0  0
 13 15  1  0  0  0
 15 27  2  0  0  0
 15 16  1  0  0  0
 16 17  2  0  0  0
 16 47  1  0  0  0
 17 18  1  0  0  0
 17 48  1  0  0  0
 18 26  2  0  0  0
 18 19  1  0  0  0
 19 20  2  0  0  0
 19 49  1  0  0  0
 20 21  1  0  0  0
 20 24  1  0  0  0
 21 22  2  0  0  0
 21 23  1  0  0  0
 22 50  1  0  0  0
 22 51  1  0  0  0
 23 52  1  0  0  0
 23 53  1  0  0  0
 24 25  2  0  0  0
 24 54  1  0  0  0
 25 26  1  0  0  0
 25 55  1  0  0  0
 26 27  1  0  0  0
 27 56  1  0  0  0
 28 29  1  0  0  0
 28 57  1  0  0  0
M  CHG  2   5   1  22   1
M  END
> <s_m_entry_id>
188

> <s_m_entry_name>
4FU9_chembl_120.1

> <s_pdb_PDB_TITLE>
CRYSTAL STRUCTURE OF THE UROKINASE

> <s_pdb_PDB_format_version>
3.30

> <s_m_Source_Path>
/Users/mmunicoy/Documents/NBD/Projects/JJ/urokinase

> <s_m_Source_File>
4FU9_chembl_120.pdb

> <i_m_Source_File_Index>
1

> <s_pdb_PDB_ID>
4FU9

> <r_pdb_PDB_CRYST1_a>
55.1

> <r_pdb_PDB_CRYST1_b>
52.4

> <r_pdb_PDB_CRYST1_c>
80.25

> <r_pdb_PDB_CRYST1_alpha>
90

> <r_pdb_PDB_CRYST1_beta>
90

> <r_pdb_PDB_CRYST1_gamma>
90

> <s_pdb_PDB_CRYST1_Space_Group>
P 21 21 21

> <i_pdb_PDB_CRYST1_z>
4

> <s_pdb_PDB_CLASSIFICATION>
HYDROLASE/HYDROLASE INHIBITOR

> <s_pdb_PDB_DEPOSITION_DATE>
28-JUN-12

> <r_pdb_PDB_R>
0.15

> <r_pdb_PDB_Rfree>
0.182

> <r_pdb_PDB_RESOLUTION>
1.6

> <s_pdb_PDB_EXPDTA>
X-RAY DIFFRACTION

> <r_pdb_PDB_EXPDTA_TEMPERATURE>
160

> <r_pdb_PDB_EXPDTA_PH>
4.8

> <s_pdb_PDB_REMARK_350_Biomolecule_1_Transform_1_Chains>
A

> <s_pdb_PDB_REMARK_350_Biomolecule_1_Transform_1_Matrix_1>
1.000000 0.000000 0.000000   0.000000;0.000000 1.000000 0.000000   0.000000;0.000000 0.000000 1.000000   0.000000

> <s_m_subgroup_title>
ligands

> <s_m_subgroupid>
ligands1

> <b_m_subgroup_collapsed>
0

$$$$
chembl_121
                    3D
 Schrodinger Suite 2021-4.
 20 21  0  0  1  0            999 V2000
   -8.6420  -20.1820    6.3310 N   0  0  0  0  0  0
   -8.7160  -19.0960    7.1970 C   0  0  0  0  0  0
   -9.8600  -19.0240    7.9010 N   0  3  0  0  0  0
  -10.0170  -18.0130    8.7740 C   0  0  0  0  0  0
   -9.0410  -17.0300    8.9970 C   0  0  0  0  0  0
   -7.8490  -17.0960    8.2580 C   0  0  0  0  0  0
   -6.8430  -16.1260    8.4420 C   0  0  0  0  0  0
   -5.6460  -16.2080    7.7070 C   0  0  0  0  0  0
   -5.4550  -17.2590    6.7890 C   0  0  0  0  0  0
   -6.4590  -18.2310    6.6060 C   0  0  0  0  0  0
   -7.6650  -18.1560    7.3370 C   0  0  0  0  0  0
   -9.4160  -20.8280    6.2630 H   0  0  0  0  0  0
   -7.8140  -20.3240    5.7700 H   0  0  0  0  0  0
  -10.5790  -19.7210    7.7680 H   0  0  0  0  0  0
  -10.9310  -17.9300    9.3440 H   0  0  0  0  0  0
   -9.2160  -16.2500    9.7230 H   0  0  0  0  0  0
   -6.9920  -15.3210    9.1470 H   0  0  0  0  0  0
   -4.8740  -15.4650    7.8460 H   0  0  0  0  0  0
   -4.5370  -17.3220    6.2240 H   0  0  0  0  0  0
   -6.3080  -19.0380    5.9040 H   0  0  0  0  0  0
  1  2  1  0  0  0
  1 12  1  0  0  0
  1 13  1  0  0  0
  2 11  2  0  0  0
  2  3  1  0  0  0
  3  4  2  0  0  0
  3 14  1  0  0  0
  4  5  1  0  0  0
  4 15  1  0  0  0
  5  6  2  0  0  0
  5 16  1  0  0  0
  6 11  1  0  0  0
  6  7  1  0  0  0
  7  8  2  0  0  0
  7 17  1  0  0  0
  8  9  1  0  0  0
  8 18  1  0  0  0
  9 10  2  0  0  0
  9 19  1  0  0  0
 10 11  1  0  0  0
 10 20  1  0  0  0
M  CHG  1   3   1
M  END
> <s_m_entry_id>
189

> <s_m_entry_name>
4FU9_chembl_121.1

> <s_pdb_PDB_TITLE>
CRYSTAL STRUCTURE OF THE UROKINASE

> <s_pdb_PDB_format_version>
3.30

> <s_m_Source_Path>
/Users/mmunicoy/Documents/NBD/Projects/JJ/urokinase

> <s_m_Source_File>
4FU9_chembl_121.pdb

> <i_m_Source_File_Index>
1

> <s_pdb_PDB_ID>
4FU9

> <r_pdb_PDB_CRYST1_a>
55.1

> <r_pdb_PDB_CRYST1_b>
52.4

> <r_pdb_PDB_CRYST1_c>
80.25

> <r_pdb_PDB_CRYST1_alpha>
90

> <r_pdb_PDB_CRYST1_beta>
90

> <r_pdb_PDB_CRYST1_gamma>
90

> <s_pdb_PDB_CRYST1_Space_Group>
P 21 21 21

> <i_pdb_PDB_CRYST1_z>
4

> <s_pdb_PDB_CLASSIFICATION>
HYDROLASE/HYDROLASE INHIBITOR

> <s_pdb_PDB_DEPOSITION_DATE>
28-JUN-12

> <r_pdb_PDB_R>
0.15

> <r_pdb_PDB_Rfree>
0.182

> <r_pdb_PDB_RESOLUTION>
1.6

> <s_pdb_PDB_EXPDTA>
X-RAY DIFFRACTION

> <r_pdb_PDB_EXPDTA_TEMPERATURE>
160

> <r_pdb_PDB_EXPDTA_PH>
4.8

> <s_pdb_PDB_REMARK_350_Biomolecule_1_Transform_1_Chains>
A

> <s_pdb_PDB_REMARK_350_Biomolecule_1_Transform_1_Matrix_1>
1.000000 0.000000 0.000000   0.000000;0.000000 1.000000 0.000000   0.000000;0.000000 0.000000 1.000000   0.000000

> <s_m_subgroup_title>
ligands

> <s_m_subgroupid>
ligands1

> <b_m_subgroup_collapsed>
0

$$$$
chembl_122
                    3D
 Schrodinger Suite 2021-4.
 39 42  0  0  1  0            999 V2000
   -8.9770  -20.8900    6.7010 N   0  3  0  0  0  0
   -9.3400  -19.6650    7.0780 C   0  0  0  0  0  0
  -10.6420  -19.4310    7.1010 N   0  0  0  0  0  0
   -8.4000  -18.5920    7.4040 C   0  0  0  0  0  0
   -8.7450  -17.6320    8.3830 C   0  0  0  0  0  0
   -7.8610  -16.5830    8.6940 C   0  0  0  0  0  0
   -6.6250  -16.4860    8.0270 C   0  0  0  0  0  0
   -5.7290  -15.4510    8.3520 C   0  0  0  0  0  0
   -4.4860  -15.3350    7.6900 C   0  0  0  0  0  0
   -3.5170  -14.2470    8.0530 C   0  0  1  0  0  0
   -4.1640  -13.1240    8.6740 O   0  0  0  0  0  0
   -3.2440  -13.8720    9.4870 C   0  0  2  0  0  0
   -2.0870  -13.0310    9.9390 C   0  0  0  0  0  0
   -1.3910  -13.3950   11.1120 C   0  0  0  0  0  0
   -0.3320  -12.6020   11.5950 C   0  0  0  0  0  0
    0.0470  -11.4370   10.9020 C   0  0  0  0  0  0
   -0.6280  -11.0740    9.7210 C   0  0  0  0  0  0
   -1.6870  -11.8690    9.2400 C   0  0  0  0  0  0
   -4.1500  -16.2840    6.7010 C   0  0  0  0  0  0
   -5.0420  -17.3230    6.3680 C   0  0  0  0  0  0
   -6.2800  -17.4310    7.0320 C   0  0  0  0  0  0
   -7.1730  -18.4750    6.7170 C   0  0  0  0  0  0
   -7.9990  -21.1370    6.6610 H   0  0  0  0  0  0
   -9.6810  -21.5720    6.4550 H   0  0  0  0  0  0
  -10.9870  -18.5230    7.3780 H   0  0  0  0  0  0
  -11.2910  -20.1600    6.8420 H   0  0  0  0  0  0
   -9.6920  -17.7010    8.8970 H   0  0  0  0  0  0
   -8.1310  -15.8540    9.4430 H   0  0  0  0  0  0
   -5.9870  -14.7330    9.1160 H   0  0  0  0  0  0
   -2.7340  -14.0240    7.3280 H   0  0  0  0  0  0
   -3.6900  -14.5170   10.2430 H   0  0  0  0  0  0
   -1.6680  -14.2910   11.6480 H   0  0  0  0  0  0
    0.1880  -12.8870   12.4980 H   0  0  0  0  0  0
    0.8540  -10.8240   11.2770 H   0  0  0  0  0  0
   -0.3330  -10.1860    9.1830 H   0  0  0  0  0  0
   -2.1940  -11.5850    8.3300 H   0  0  0  0  0  0
   -3.2010  -16.2190    6.1900 H   0  0  0  0  0  0
   -4.7770  -18.0380    5.6020 H   0  0  0  0  0  0
   -6.9160  -19.1870    5.9470 H   0  0  0  0  0  0
  1  2  2  0  0  0
  1 23  1  0  0  0
  1 24  1  0  0  0
  2  3  1  0  0  0
  2  4  1  0  0  0
  3 25  1  0  0  0
  3 26  1  0  0  0
  4 22  2  0  0  0
  4  5  1  0  0  0
  5  6  2  0  0  0
  5 27  1  0  0  0
  6  7  1  0  0  0
  6 28  1  0  0  0
  7 21  2  0  0  0
  7  8  1  0  0  0
  8  9  2  0  0  0
  8 29  1  0  0  0
  9 10  1  0  0  0
  9 19  1  0  0  0
 10 12  1  0  0  0
 10 11  1  0  0  0
 10 30  1  0  0  0
 11 12  1  0  0  0
 12 13  1  0  0  0
 12 31  1  0  0  0
 13 18  2  0  0  0
 13 14  1  0  0  0
 14 15  2  0  0  0
 14 32  1  0  0  0
 15 16  1  0  0  0
 15 33  1  0  0  0
 16 17  2  0  0  0
 16 34  1  0  0  0
 17 18  1  0  0  0
 17 35  1  0  0  0
 18 36  1  0  0  0
 19 20  2  0  0  0
 19 37  1  0  0  0
 20 21  1  0  0  0
 20 38  1  0  0  0
 21 22  1  0  0  0
 22 39  1  0  0  0
M  CHG  1   1   1
M  END
> <s_m_entry_id>
190

> <s_m_entry_name>
4FU9_chembl_122.1

> <s_pdb_PDB_TITLE>
CRYSTAL STRUCTURE OF THE UROKINASE

> <s_pdb_PDB_format_version>
3.30

> <s_m_Source_Path>
/Users/mmunicoy/Documents/NBD/Projects/JJ/urokinase

> <s_m_Source_File>
4FU9_chembl_122.pdb

> <i_m_Source_File_Index>
1

> <s_pdb_PDB_ID>
4FU9

> <r_pdb_PDB_CRYST1_a>
55.1

> <r_pdb_PDB_CRYST1_b>
52.4

> <r_pdb_PDB_CRYST1_c>
80.25

> <r_pdb_PDB_CRYST1_alpha>
90

> <r_pdb_PDB_CRYST1_beta>
90

> <r_pdb_PDB_CRYST1_gamma>
90

> <s_pdb_PDB_CRYST1_Space_Group>
P 21 21 21

> <i_pdb_PDB_CRYST1_z>
4

> <s_pdb_PDB_CLASSIFICATION>
HYDROLASE/HYDROLASE INHIBITOR

> <s_pdb_PDB_DEPOSITION_DATE>
28-JUN-12

> <r_pdb_PDB_R>
0.15

> <r_pdb_PDB_Rfree>
0.182

> <r_pdb_PDB_RESOLUTION>
1.6

> <s_pdb_PDB_EXPDTA>
X-RAY DIFFRACTION

> <r_pdb_PDB_EXPDTA_TEMPERATURE>
160

> <r_pdb_PDB_EXPDTA_PH>
4.8

> <s_pdb_PDB_REMARK_350_Biomolecule_1_Transform_1_Chains>
A

> <s_pdb_PDB_REMARK_350_Biomolecule_1_Transform_1_Matrix_1>
1.000000 0.000000 0.000000   0.000000;0.000000 1.000000 0.000000   0.000000;0.000000 0.000000 1.000000   0.000000

> <s_m_subgroup_title>
ligands

> <s_m_subgroupid>
ligands1

> <b_m_subgroup_collapsed>
0

$$$$
chembl_123
                    3D
 Schrodinger Suite 2021-4.
 45 48  0  0  1  0            999 V2000
   -9.0130  -20.9230    6.7010 N   0  3  0  0  0  0
   -9.3460  -19.6880    7.0740 C   0  0  0  0  0  0
  -10.6420  -19.4310    7.1010 N   0  0  0  0  0  0
   -8.3830  -18.6310    7.3850 C   0  0  0  0  0  0
   -8.7040  -17.6280    8.3280 C   0  0  0  0  0  0
   -7.7820  -16.6040    8.6220 C   0  0  0  0  0  0
   -6.5290  -16.5780    7.9780 C   0  0  0  0  0  0
   -5.5850  -15.5800    8.2970 C   0  0  0  0  0  0
   -4.3230  -15.5610    7.6580 C   0  0  0  0  0  0
   -3.2840  -14.5430    8.0270 C   0  0  0  0  0  0
   -2.0910  -14.8440    8.0160 O   0  0  0  0  0  0
   -3.7580  -13.3090    8.2760 N   0  0  0  0  0  0
   -3.0220  -12.1560    8.6590 C   0  0  0  0  0  0
   -1.8420  -12.2310    9.4500 C   0  0  0  0  0  0
   -1.1550  -11.0590    9.8350 C   0  0  0  0  0  0
   -1.6710   -9.8190    9.4210 C   0  0  0  0  0  0
   -2.8240   -9.7400    8.6510 C   0  0  0  0  0  0
   -3.5270  -10.8940    8.2660 C   0  0  0  0  0  0
   -3.1580   -8.3150    8.3010 C   0  0  0  0  0  0
   -2.1270   -7.4800    9.0960 C   0  0  0  0  0  0
   -1.0990   -8.4590    9.7130 C   0  0  0  0  0  0
   -4.0190  -16.5540    6.7010 C   0  0  0  0  0  0
   -4.9610  -17.5460    6.3720 C   0  0  0  0  0  0
   -6.2130  -17.5680    7.0160 C   0  0  0  0  0  0
   -7.1450  -18.5800    6.7140 C   0  0  0  0  0  0
   -8.0400  -21.1920    6.6570 H   0  0  0  0  0  0
   -9.7320  -21.5910    6.4630 H   0  0  0  0  0  0
  -10.9700  -18.5150    7.3740 H   0  0  0  0  0  0
  -11.3050  -20.1500    6.8490 H   0  0  0  0  0  0
   -9.6610  -17.6430    8.8280 H   0  0  0  0  0  0
   -8.0360  -15.8400    9.3420 H   0  0  0  0  0  0
   -5.8240  -14.8260    9.0330 H   0  0  0  0  0  0
   -4.7480  -13.1230    8.1970 H   0  0  0  0  0  0
   -1.4620  -13.1920    9.7640 H   0  0  0  0  0  0
   -0.2570  -11.1300   10.4310 H   0  0  0  0  0  0
   -4.4340  -10.8330    7.6830 H   0  0  0  0  0  0
   -4.1620   -8.0830    8.6570 H   0  0  0  0  0  0
   -3.0020   -8.1600    7.2330 H   0  0  0  0  0  0
   -2.6360   -6.9380    9.8940 H   0  0  0  0  0  0
   -1.6150   -6.7960    8.4200 H   0  0  0  0  0  0
   -0.1440   -8.3510    9.1990 H   0  0  0  0  0  0
   -1.0600   -8.3080   10.7920 H   0  0  0  0  0  0
   -3.0550  -16.5570    6.2140 H   0  0  0  0  0  0
   -4.7250  -18.2900    5.6260 H   0  0  0  0  0  0
   -6.9060  -19.3190    5.9640 H   0  0  0  0  0  0
  1  2  2  0  0  0
  1 26  1  0  0  0
  1 27  1  0  0  0
  2  3  1  0  0  0
  2  4  1  0  0  0
  3 28  1  0  0  0
  3 29  1  0  0  0
  4 25  2  0  0  0
  4  5  1  0  0  0
  5  6  2  0  0  0
  5 30  1  0  0  0
  6  7  1  0  0  0
  6 31  1  0  0  0
  7 24  2  0  0  0
  7  8  1  0  0  0
  8  9  2  0  0  0
  8 32  1  0  0  0
  9 10  1  0  0  0
  9 22  1  0  0  0
 10 11  2  0  0  0
 10 12  1  0  0  0
 12 13  1  0  0  0
 12 33  1  0  0  0
 13 18  2  0  0  0
 13 14  1  0  0  0
 14 15  2  0  0  0
 14 34  1  0  0  0
 15 16  1  0  0  0
 15 35  1  0  0  0
 16 21  1  0  0  0
 16 17  2  0  0  0
 17 18  1  0  0  0
 17 19  1  0  0  0
 18 36  1  0  0  0
 19 20  1  0  0  0
 19 37  1  0  0  0
 19 38  1  0  0  0
 20 21  1  0  0  0
 20 39  1  0  0  0
 20 40  1  0  0  0
 21 41  1  0  0  0
 21 42  1  0  0  0
 22 23  2  0  0  0
 22 43  1  0  0  0
 23 24  1  0  0  0
 23 44  1  0  0  0
 24 25  1  0  0  0
 25 45  1  0  0  0
M  CHG  1   1   1
M  END
> <s_m_entry_id>
191

> <s_m_entry_name>
4FU9_chembl_123.1

> <s_pdb_PDB_TITLE>
CRYSTAL STRUCTURE OF THE UROKINASE

> <s_pdb_PDB_format_version>
3.30

> <s_m_Source_Path>
/Users/mmunicoy/Documents/NBD/Projects/JJ/urokinase

> <s_m_Source_File>
4FU9_chembl_123.pdb

> <i_m_Source_File_Index>
1

> <s_pdb_PDB_ID>
4FU9

> <r_pdb_PDB_CRYST1_a>
55.1

> <r_pdb_PDB_CRYST1_b>
52.4

> <r_pdb_PDB_CRYST1_c>
80.25

> <r_pdb_PDB_CRYST1_alpha>
90

> <r_pdb_PDB_CRYST1_beta>
90

> <r_pdb_PDB_CRYST1_gamma>
90

> <s_pdb_PDB_CRYST1_Space_Group>
P 21 21 21

> <i_pdb_PDB_CRYST1_z>
4

> <s_pdb_PDB_CLASSIFICATION>
HYDROLASE/HYDROLASE INHIBITOR

> <s_pdb_PDB_DEPOSITION_DATE>
28-JUN-12

> <r_pdb_PDB_R>
0.15

> <r_pdb_PDB_Rfree>
0.182

> <r_pdb_PDB_RESOLUTION>
1.6

> <s_pdb_PDB_EXPDTA>
X-RAY DIFFRACTION

> <r_pdb_PDB_EXPDTA_TEMPERATURE>
160

> <r_pdb_PDB_EXPDTA_PH>
4.8

> <s_pdb_PDB_REMARK_350_Biomolecule_1_Transform_1_Chains>
A

> <s_pdb_PDB_REMARK_350_Biomolecule_1_Transform_1_Matrix_1>
1.000000 0.000000 0.000000   0.000000;0.000000 1.000000 0.000000   0.000000;0.000000 0.000000 1.000000   0.000000

> <s_m_subgroup_title>
ligands

> <s_m_subgroupid>
ligands1

> <b_m_subgroup_collapsed>
0

$$$$
chembl_124
                    3D
 Schrodinger Suite 2021-4.
 48 51  0  0  1  0            999 V2000
   -9.0420  -20.4130    6.3110 N   0  0  0  0  0  0
   -8.5830  -19.2420    6.8970 C   0  0  0  0  0  0
   -9.4460  -18.2980    7.4750 C   0  0  0  0  0  0
   -8.9090  -17.1380    8.0590 C   0  0  0  0  0  0
   -7.5100  -16.9640    8.0770 C   0  0  0  0  0  0
   -6.9340  -15.8440    8.7010 C   0  0  0  0  0  0
   -5.5330  -15.7160    8.7740 C   0  0  0  0  0  0
   -5.0230  -14.6310    9.4920 N   0  0  0  0  0  0
   -3.5920  -14.4170    9.6780 C   0  0  0  0  0  0
   -2.9310  -13.7060    8.4830 C   0  0  0  0  0  0
   -3.3820  -12.2660    8.2990 C   0  0  0  0  0  0
   -2.5390  -11.2100    8.7030 C   0  0  0  0  0  0
   -2.9310   -9.8730    8.5080 C   0  0  0  0  0  0
   -4.1670   -9.5860    7.9000 C   0  0  0  0  0  0
   -5.0180  -10.6330    7.5010 C   0  0  0  0  0  0
   -4.6240  -11.9700    7.6950 C   0  0  0  0  0  0
   -4.7100  -16.6880    8.1600 C   0  0  0  0  0  0
   -5.2750  -17.8090    7.5250 C   0  0  0  0  0  0
   -4.4230  -18.7830    6.9970 N   0  0  0  0  0  0
   -3.6250  -18.7830    5.8790 C   0  0  0  0  0  0
   -2.6980  -19.7410    5.8210 N   0  0  0  0  0  0
   -1.8910  -19.7270    4.7400 C   0  0  0  0  0  0
   -2.0360  -18.7820    3.7110 C   0  0  0  0  0  0
   -3.0560  -17.8310    3.8860 C   0  0  0  0  0  0
   -3.8390  -17.8220    4.9800 N   0  0  0  0  0  0
   -6.6780  -17.9510    7.4920 C   0  0  0  0  0  0
   -7.2520  -19.0310    6.9260 N   0  3  0  0  0  0
  -10.0330  -20.6030    6.2720 H   0  0  0  0  0  0
   -8.3850  -21.0750    5.9230 H   0  0  0  0  0  0
  -10.5120  -18.4670    7.4690 H   0  0  0  0  0  0
   -9.5660  -16.3940    8.4860 H   0  0  0  0  0  0
   -7.5660  -15.0780    9.1260 H   0  0  0  0  0  0
   -5.6530  -13.9590    9.9050 H   0  0  0  0  0  0
   -3.1020  -15.3760    9.8450 H   0  0  0  0  0  0
   -3.4280  -13.8330   10.5830 H   0  0  0  0  0  0
   -3.1330  -14.2680    7.5710 H   0  0  0  0  0  0
   -1.8480  -13.7340    8.6010 H   0  0  0  0  0  0
   -1.5870  -11.4260    9.1660 H   0  0  0  0  0  0
   -2.2840   -9.0680    8.8250 H   0  0  0  0  0  0
   -4.4640   -8.5600    7.7380 H   0  0  0  0  0  0
   -5.9720  -10.4090    7.0460 H   0  0  0  0  0  0
   -5.2750  -12.7720    7.3810 H   0  0  0  0  0  0
   -3.6360  -16.5740    8.1760 H   0  0  0  0  0  0
   -4.3220  -19.6730    7.4640 H   0  0  0  0  0  0
   -1.1020  -20.4590    4.6460 H   0  0  0  0  0  0
   -1.3830  -18.8160    2.8510 H   0  0  0  0  0  0
   -3.2290  -17.0800    3.1290 H   0  0  0  0  0  0
   -6.6250  -19.7030    6.5080 H   0  0  0  0  0  0
  1  2  1  0  0  0
  1 28  1  0  0  0
  1 29  1  0  0  0
  2 27  2  0  0  0
  2  3  1  0  0  0
  3  4  2  0  0  0
  3 30  1  0  0  0
  4  5  1  0  0  0
  4 31  1  0  0  0
  5 26  2  0  0  0
  5  6  1  0  0  0
  6  7  2  0  0  0
  6 32  1  0  0  0
  7  8  1  0  0  0
  7 17  1  0  0  0
  8  9  1  0  0  0
  8 33  1  0  0  0
  9 10  1  0  0  0
  9 34  1  0  0  0
  9 35  1  0  0  0
 10 11  1  0  0  0
 10 36  1  0  0  0
 10 37  1  0  0  0
 11 16  2  0  0  0
 11 12  1  0  0  0
 12 13  2  0  0  0
 12 38  1  0  0  0
 13 14  1  0  0  0
 13 39  1  0  0  0
 14 15  2  0  0  0
 14 40  1  0  0  0
 15 16  1  0  0  0
 15 41  1  0  0  0
 16 42  1  0  0  0
 17 18  2  0  0  0
 17 43  1  0  0  0
 18 19  1  0  0  0
 18 26  1  0  0  0
 19 20  1  0  0  0
 19 44  1  0  0  0
 20 25  2  0  0  0
 20 21  1  0  0  0
 21 22  2  0  0  0
 22 23  1  0  0  0
 22 45  1  0  0  0
 23 24  2  0  0  0
 23 46  1  0  0  0
 24 25  1  0  0  0
 24 47  1  0  0  0
 26 27  1  0  0  0
 27 48  1  0  0  0
M  CHG  1  27   1
M  END
> <s_m_entry_id>
192

> <s_m_entry_name>
4FU9_chembl_124.1

> <s_pdb_PDB_TITLE>
CRYSTAL STRUCTURE OF THE UROKINASE

> <s_pdb_PDB_format_version>
3.30

> <s_m_Source_Path>
/Users/mmunicoy/Documents/NBD/Projects/JJ/urokinase

> <s_m_Source_File>
4FU9_chembl_124.pdb

> <i_m_Source_File_Index>
1

> <s_pdb_PDB_ID>
4FU9

> <r_pdb_PDB_CRYST1_a>
55.1

> <r_pdb_PDB_CRYST1_b>
52.4

> <r_pdb_PDB_CRYST1_c>
80.25

> <r_pdb_PDB_CRYST1_alpha>
90

> <r_pdb_PDB_CRYST1_beta>
90

> <r_pdb_PDB_CRYST1_gamma>
90

> <s_pdb_PDB_CRYST1_Space_Group>
P 21 21 21

> <i_pdb_PDB_CRYST1_z>
4

> <s_pdb_PDB_CLASSIFICATION>
HYDROLASE/HYDROLASE INHIBITOR

> <s_pdb_PDB_DEPOSITION_DATE>
28-JUN-12

> <r_pdb_PDB_R>
0.15

> <r_pdb_PDB_Rfree>
0.182

> <r_pdb_PDB_RESOLUTION>
1.6

> <s_pdb_PDB_EXPDTA>
X-RAY DIFFRACTION

> <r_pdb_PDB_EXPDTA_TEMPERATURE>
160

> <r_pdb_PDB_EXPDTA_PH>
4.8

> <s_pdb_PDB_REMARK_350_Biomolecule_1_Transform_1_Chains>
A

> <s_pdb_PDB_REMARK_350_Biomolecule_1_Transform_1_Matrix_1>
1.000000 0.000000 0.000000   0.000000;0.000000 1.000000 0.000000   0.000000;0.000000 0.000000 1.000000   0.000000

> <s_m_subgroup_title>
ligands

> <s_m_subgroupid>
ligands1

> <b_m_subgroup_collapsed>
0

$$$$
chembl_125
                    3D
 Schrodinger Suite 2021-4.
 37 39  0  0  1  0            999 V2000
   -2.0440  -15.0120    6.8080 C   0  0  0  0  0  0
   -3.0020  -15.9290    6.3020 O   0  0  0  0  0  0
   -4.1950  -16.0840    6.9790 C   0  0  0  0  0  0
   -4.5730  -15.2670    8.0720 C   0  0  0  0  0  0
   -5.8230  -15.4370    8.6900 C   0  0  0  0  0  0
   -6.7040  -16.4370    8.2430 C   0  0  0  0  0  0
   -7.9660  -16.5760    8.8470 C   0  0  0  0  0  0
   -8.8240  -17.6180    8.4600 C   0  0  0  0  0  0
   -8.4290  -18.5310    7.4570 C   0  0  0  0  0  0
   -9.3310  -19.6250    7.0890 C   0  0  0  0  0  0
  -10.6420  -19.4310    7.1010 N   0  3  0  0  0  0
   -8.9260  -20.8350    6.7010 N   0  0  0  0  0  0
   -7.1900  -18.3510    6.8020 C   0  0  0  0  0  0
   -6.3220  -17.3020    7.1890 C   0  0  0  0  0  0
   -5.0810  -17.1030    6.5400 C   0  0  0  0  0  0
   -4.7950  -17.8540    5.4260 O   0  0  0  0  0  0
   -3.6110  -18.5400    5.3410 C   0  0  0  0  0  0
   -3.0230  -19.2290    6.4290 C   0  0  0  0  0  0
   -1.8420  -19.8800    6.3010 N   0  0  0  0  0  0
   -1.2560  -19.8250    5.0830 C   0  0  0  0  0  0
   -1.8560  -19.1600    3.9920 C   0  0  0  0  0  0
   -3.0420  -18.5250    4.1140 N   0  0  0  0  0  0
   -1.1660  -15.0080    6.1620 H   0  0  0  0  0  0
   -2.4770  -14.0120    6.8370 H   0  0  0  0  0  0
   -1.7520  -15.3100    7.8150 H   0  0  0  0  0  0
   -3.8990  -14.5060    8.4360 H   0  0  0  0  0  0
   -6.1100  -14.7980    9.5130 H   0  0  0  0  0  0
   -8.2780  -15.8790    9.6120 H   0  0  0  0  0  0
   -9.7910  -17.7240    8.9280 H   0  0  0  0  0  0
  -11.2660  -20.1830    6.8470 H   0  0  0  0  0  0
  -11.0170  -18.5310    7.3640 H   0  0  0  0  0  0
   -9.6060  -21.5420    6.4610 H   0  0  0  0  0  0
   -7.9400  -21.0440    6.6470 H   0  0  0  0  0  0
   -6.9010  -19.0160    6.0010 H   0  0  0  0  0  0
   -3.5170  -19.2440    7.3890 H   0  0  0  0  0  0
   -0.2990  -20.2980    4.9220 H   0  0  0  0  0  0
   -1.3670  -19.1500    3.0300 H   0  0  0  0  0  0
  1  2  1  0  0  0
  1 23  1  0  0  0
  1 24  1  0  0  0
  1 25  1  0  0  0
  2  3  1  0  0  0
  3 15  2  0  0  0
  3  4  1  0  0  0
  4  5  2  0  0  0
  4 26  1  0  0  0
  5  6  1  0  0  0
  5 27  1  0  0  0
  6 14  2  0  0  0
  6  7  1  0  0  0
  7  8  2  0  0  0
  7 28  1  0  0  0
  8  9  1  0  0  0
  8 29  1  0  0  0
  9 10  1  0  0  0
  9 13  2  0  0  0
 10 11  2  0  0  0
 10 12  1  0  0  0
 11 30  1  0  0  0
 11 31  1  0  0  0
 12 32  1  0  0  0
 12 33  1  0  0  0
 13 14  1  0  0  0
 13 34  1  0  0  0
 14 15  1  0  0  0
 15 16  1  0  0  0
 16 17  1  0  0  0
 17 22  2  0  0  0
 17 18  1  0  0  0
 18 19  2  0  0  0
 18 35  1  0  0  0
 19 20  1  0  0  0
 20 21  2  0  0  0
 20 36  1  0  0  0
 21 22  1  0  0  0
 21 37  1  0  0  0
M  CHG  1  11   1
M  END
> <s_m_entry_id>
193

> <s_m_entry_name>
4FU9_chembl_125.1

> <s_pdb_PDB_TITLE>
CRYSTAL STRUCTURE OF THE UROKINASE

> <s_pdb_PDB_format_version>
3.30

> <s_m_Source_Path>
/Users/mmunicoy/Documents/NBD/Projects/JJ/urokinase

> <s_m_Source_File>
4FU9_chembl_125.pdb

> <i_m_Source_File_Index>
1

> <s_pdb_PDB_ID>
4FU9

> <r_pdb_PDB_CRYST1_a>
55.1

> <r_pdb_PDB_CRYST1_b>
52.4

> <r_pdb_PDB_CRYST1_c>
80.25

> <r_pdb_PDB_CRYST1_alpha>
90

> <r_pdb_PDB_CRYST1_beta>
90

> <r_pdb_PDB_CRYST1_gamma>
90

> <s_pdb_PDB_CRYST1_Space_Group>
P 21 21 21

> <i_pdb_PDB_CRYST1_z>
4

> <s_pdb_PDB_CLASSIFICATION>
HYDROLASE/HYDROLASE INHIBITOR

> <s_pdb_PDB_DEPOSITION_DATE>
28-JUN-12

> <r_pdb_PDB_R>
0.15

> <r_pdb_PDB_Rfree>
0.182

> <r_pdb_PDB_RESOLUTION>
1.6

> <s_pdb_PDB_EXPDTA>
X-RAY DIFFRACTION

> <r_pdb_PDB_EXPDTA_TEMPERATURE>
160

> <r_pdb_PDB_EXPDTA_PH>
4.8

> <s_pdb_PDB_REMARK_350_Biomolecule_1_Transform_1_Chains>
A

> <s_pdb_PDB_REMARK_350_Biomolecule_1_Transform_1_Matrix_1>
1.000000 0.000000 0.000000   0.000000;0.000000 1.000000 0.000000   0.000000;0.000000 0.000000 1.000000   0.000000

> <s_m_subgroup_title>
ligands

> <s_m_subgroupid>
ligands1

> <b_m_subgroup_collapsed>
0

$$$$
chembl_126
                    3D
 Schrodinger Suite 2021-4.
 33 35  0  0  1  0            999 V2000
   -8.6430  -19.9770    6.7010 N   0  0  0  0  0  0
   -8.0940  -18.7430    7.0190 C   0  0  0  0  0  0
   -8.9180  -17.6240    7.2270 C   0  0  0  0  0  0
   -8.3070  -16.3880    7.5010 C   0  0  0  0  0  0
   -6.8980  -16.3290    7.5600 C   0  0  0  0  0  0
   -6.2490  -15.1050    7.8040 C   0  0  0  0  0  0
   -4.8410  -15.0360    7.9040 C   0  0  0  0  0  0
   -4.1430  -13.8360    8.2230 N   0  0  0  0  0  0
   -4.4500  -12.5650    7.9010 C   0  0  0  0  0  0
   -5.4360  -12.2310    7.2330 O   0  0  0  0  0  0
   -3.5260  -11.5130    8.4440 C   0  0  0  0  0  0
   -2.1840  -11.8120    8.7870 C   0  0  0  0  0  0
   -1.3420  -10.8080    9.3040 C   0  0  0  0  0  0
   -1.8250   -9.4960    9.4690 C   0  0  0  0  0  0
   -3.1450   -9.1820    9.1010 C   0  0  0  0  0  0
   -3.9900  -10.1860    8.5900 C   0  0  0  0  0  0
   -4.0950  -16.2230    7.7600 C   0  0  0  0  0  0
   -4.7460  -17.4420    7.4810 C   0  0  0  0  0  0
   -6.1490  -17.5180    7.3740 C   0  0  0  0  0  0
   -6.7510  -18.6930    7.1010 N   0  0  0  0  0  0
   -9.6450  -20.0790    6.6250 H   0  0  0  0  0  0
   -8.0410  -20.7730    6.5470 H   0  0  0  0  0  0
   -9.9920  -17.7270    7.1740 H   0  0  0  0  0  0
   -8.9140  -15.5100    7.6620 H   0  0  0  0  0  0
   -6.8280  -14.2000    7.9170 H   0  0  0  0  0  0
   -3.2910  -13.8770    8.7640 H   0  0  0  0  0  0
   -1.8020  -12.8130    8.6510 H   0  0  0  0  0  0
   -0.3240  -11.0450    9.5760 H   0  0  0  0  0  0
   -1.1810   -8.7320    9.8780 H   0  0  0  0  0  0
   -3.5100   -8.1720    9.2100 H   0  0  0  0  0  0
   -5.0020   -9.9340    8.3100 H   0  0  0  0  0  0
   -3.0210  -16.2020    7.8630 H   0  0  0  0  0  0
   -4.1670  -18.3440    7.3440 H   0  0  0  0  0  0
  1  2  1  0  0  0
  1 21  1  0  0  0
  1 22  1  0  0  0
  2 20  2  0  0  0
  2  3  1  0  0  0
  3  4  2  0  0  0
  3 23  1  0  0  0
  4  5  1  0  0  0
  4 24  1  0  0  0
  5 19  2  0  0  0
  5  6  1  0  0  0
  6  7  2  0  0  0
  6 25  1  0  0  0
  7  8  1  0  0  0
  7 17  1  0  0  0
  8  9  1  0  0  0
  8 26  1  0  0  0
  9 10  2  0  0  0
  9 11  1  0  0  0
 11 16  2  0  0  0
 11 12  1  0  0  0
 12 13  2  0  0  0
 12 27  1  0  0  0
 13 14  1  0  0  0
 13 28  1  0  0  0
 14 15  2  0  0  0
 14 29  1  0  0  0
 15 16  1  0  0  0
 15 30  1  0  0  0
 16 31  1  0  0  0
 17 18  2  0  0  0
 17 32  1  0  0  0
 18 19  1  0  0  0
 18 33  1  0  0  0
 19 20  1  0  0  0
M  END
> <s_m_entry_id>
194

> <s_m_entry_name>
4FU9_chembl_126.1

> <s_pdb_PDB_TITLE>
CRYSTAL STRUCTURE OF THE UROKINASE

> <s_pdb_PDB_format_version>
3.30

> <s_m_Source_Path>
/Users/mmunicoy/Documents/NBD/Projects/JJ/urokinase

> <s_m_Source_File>
4FU9_chembl_126.pdb

> <i_m_Source_File_Index>
1

> <s_pdb_PDB_ID>
4FU9

> <r_pdb_PDB_CRYST1_a>
55.1

> <r_pdb_PDB_CRYST1_b>
52.4

> <r_pdb_PDB_CRYST1_c>
80.25

> <r_pdb_PDB_CRYST1_alpha>
90

> <r_pdb_PDB_CRYST1_beta>
90

> <r_pdb_PDB_CRYST1_gamma>
90

> <s_pdb_PDB_CRYST1_Space_Group>
P 21 21 21

> <i_pdb_PDB_CRYST1_z>
4

> <s_pdb_PDB_CLASSIFICATION>
HYDROLASE/HYDROLASE INHIBITOR

> <s_pdb_PDB_DEPOSITION_DATE>
28-JUN-12

> <r_pdb_PDB_R>
0.15

> <r_pdb_PDB_Rfree>
0.182

> <r_pdb_PDB_RESOLUTION>
1.6

> <s_pdb_PDB_EXPDTA>
X-RAY DIFFRACTION

> <r_pdb_PDB_EXPDTA_TEMPERATURE>
160

> <r_pdb_PDB_EXPDTA_PH>
4.8

> <s_pdb_PDB_REMARK_350_Biomolecule_1_Transform_1_Chains>
A

> <s_pdb_PDB_REMARK_350_Biomolecule_1_Transform_1_Matrix_1>
1.000000 0.000000 0.000000   0.000000;0.000000 1.000000 0.000000   0.000000;0.000000 0.000000 1.000000   0.000000

> <s_m_subgroup_title>
ligands

> <s_m_subgroupid>
ligands1

> <b_m_subgroup_collapsed>
0

$$$$
chembl_139
                    3D
 Schrodinger Suite 2021-4.
 34 35  0  0  1  0            999 V2000
   -1.8420  -19.6600    9.7430 C   0  0  0  0  0  0
   -2.2520  -18.8460    8.6580 O   0  0  0  0  0  0
   -2.2450  -19.3450    7.4110 C   0  0  0  0  0  0
   -1.8860  -20.4870    7.1010 O   0  0  0  0  0  0
   -2.7460  -18.3260    6.3670 C   0  0  1  0  0  0
   -2.3630  -18.7300    4.9340 C   0  0  0  0  0  0
   -4.1720  -18.2630    6.3880 O   0  0  0  0  0  0
   -4.8450  -17.4180    7.2500 C   0  0  0  0  0  0
   -4.2370  -16.3820    8.0040 C   0  0  0  0  0  0
   -5.0080  -15.5840    8.8700 C   0  0  0  0  0  0
   -6.3870  -15.8160    9.0030 C   0  0  0  0  0  0
   -6.9940  -16.8460    8.2660 C   0  0  0  0  0  0
   -8.6790  -17.3620    8.3010 S   0  0  0  0  0  0
   -8.3400  -18.6650    7.1940 C   0  0  0  0  0  0
   -9.3530  -19.6420    6.8620 C   0  0  0  0  0  0
   -9.0420  -20.8090    6.3010 N   0  3  0  0  0  0
  -10.6420  -19.4310    7.1010 N   0  0  0  0  0  0
   -7.0610  -18.6310    6.7010 C   0  0  0  0  0  0
   -6.2380  -17.6540    7.3620 C   0  0  0  0  0  0
   -1.9130  -19.0920   10.6710 H   0  0  0  0  0  0
   -2.4870  -20.5370    9.8040 H   0  0  0  0  0  0
   -0.8110  -19.9780    9.5910 H   0  0  0  0  0  0
   -2.3340  -17.3420    6.5900 H   0  0  0  0  0  0
   -2.7360  -17.9840    4.2330 H   0  0  0  0  0  0
   -1.2780  -18.7940    4.8520 H   0  0  0  0  0  0
   -2.8020  -19.7000    4.7000 H   0  0  0  0  0  0
   -3.1760  -16.2020    7.9150 H   0  0  0  0  0  0
   -4.5390  -14.7920    9.4340 H   0  0  0  0  0  0
   -6.9750  -15.2040    9.6700 H   0  0  0  0  0  0
   -9.7700  -21.4730    6.0800 H   0  0  0  0  0  0
   -8.0780  -21.0300    6.0960 H   0  0  0  0  0  0
  -11.3230  -20.1360    6.8570 H   0  0  0  0  0  0
  -10.9420  -18.5660    7.5270 H   0  0  0  0  0  0
   -6.7730  -19.2960    5.9000 H   0  0  0  0  0  0
  1  2  1  0  0  0
  1 20  1  0  0  0
  1 21  1  0  0  0
  1 22  1  0  0  0
  2  3  1  0  0  0
  3  4  2  0  0  0
  3  5  1  0  0  0
  5  6  1  0  0  0
  5  7  1  0  0  0
  5 23  1  0  0  0
  6 24  1  0  0  0
  6 25  1  0  0  0
  6 26  1  0  0  0
  7  8  1  0  0  0
  8 19  2  0  0  0
  8  9  1  0  0  0
  9 10  2  0  0  0
  9 27  1  0  0  0
 10 11  1  0  0  0
 10 28  1  0  0  0
 11 12  2  0  0  0
 11 29  1  0  0  0
 12 19  1  0  0  0
 12 13  1  0  0  0
 13 14  1  0  0  0
 14 15  1  0  0  0
 14 18  2  0  0  0
 15 16  2  0  0  0
 15 17  1  0  0  0
 16 30  1  0  0  0
 16 31  1  0  0  0
 17 32  1  0  0  0
 17 33  1  0  0  0
 18 19  1  0  0  0
 18 34  1  0  0  0
M  CHG  1  16   1
M  END
> <s_m_entry_id>
195

> <s_m_entry_name>
4FU9_chembl_139.1

> <s_pdb_PDB_TITLE>
CRYSTAL STRUCTURE OF THE UROKINASE

> <s_pdb_PDB_format_version>
3.30

> <s_m_Source_Path>
/Users/mmunicoy/Documents/NBD/Projects/JJ/urokinase

> <s_m_Source_File>
4FU9_chembl_139.pdb

> <i_m_Source_File_Index>
1

> <s_pdb_PDB_ID>
4FU9

> <r_pdb_PDB_CRYST1_a>
55.1

> <r_pdb_PDB_CRYST1_b>
52.4

> <r_pdb_PDB_CRYST1_c>
80.25

> <r_pdb_PDB_CRYST1_alpha>
90

> <r_pdb_PDB_CRYST1_beta>
90

> <r_pdb_PDB_CRYST1_gamma>
90

> <s_pdb_PDB_CRYST1_Space_Group>
P 21 21 21

> <i_pdb_PDB_CRYST1_z>
4

> <s_pdb_PDB_CLASSIFICATION>
HYDROLASE/HYDROLASE INHIBITOR

> <s_pdb_PDB_DEPOSITION_DATE>
28-JUN-12

> <r_pdb_PDB_R>
0.15

> <r_pdb_PDB_Rfree>
0.182

> <r_pdb_PDB_RESOLUTION>
1.6

> <s_pdb_PDB_EXPDTA>
X-RAY DIFFRACTION

> <r_pdb_PDB_EXPDTA_TEMPERATURE>
160

> <r_pdb_PDB_EXPDTA_PH>
4.8

> <s_pdb_PDB_REMARK_350_Biomolecule_1_Transform_1_Chains>
A

> <s_pdb_PDB_REMARK_350_Biomolecule_1_Transform_1_Matrix_1>
1.000000 0.000000 0.000000   0.000000;0.000000 1.000000 0.000000   0.000000;0.000000 0.000000 1.000000   0.000000

> <s_m_subgroup_title>
ligands

> <s_m_subgroupid>
ligands1

> <b_m_subgroup_collapsed>
0

$$$$
chembl_144
                    3D
 Schrodinger Suite 2021-4.
 39 41  0  0  1  0            999 V2000
   -9.0420  -20.8100    6.3010 N   0  3  0  0  0  0
   -9.3560  -19.6360    6.8430 C   0  0  0  0  0  0
  -10.6420  -19.4310    7.1010 N   0  0  0  0  0  0
   -8.3630  -18.6260    7.1230 C   0  0  0  0  0  0
   -7.1670  -18.4460    6.4730 C   0  0  0  0  0  0
   -6.3910  -17.3710    7.0420 C   0  0  0  0  0  0
   -5.1100  -16.8790    6.6920 C   0  0  0  0  0  0
   -4.5110  -17.4050    5.5730 O   0  0  0  0  0  0
   -3.2200  -17.9900    5.7260 C   0  0  1  0  0  0
   -3.4350  -19.4340    6.2340 C   0  0  0  0  0  0
   -2.2420  -20.0390    6.7000 O   0  0  0  0  0  0
   -2.4650  -17.9470    4.4010 C   0  0  0  0  0  0
   -3.1630  -17.9060    3.1720 C   0  0  0  0  0  0
   -2.4650  -17.8560    1.9510 C   0  0  0  0  0  0
   -1.0580  -17.8560    1.9460 C   0  0  0  0  0  0
   -0.3530  -17.8990    3.1650 C   0  0  0  0  0  0
   -1.0540  -17.9450    4.3870 C   0  0  0  0  0  0
   -4.5030  -15.8370    7.4280 C   0  0  0  0  0  0
   -5.1700  -15.2640    8.5240 C   0  0  0  0  0  0
   -6.4560  -15.7100    8.8720 C   0  0  0  0  0  0
   -7.0620  -16.7420    8.1350 C   0  0  0  0  0  0
   -8.6630  -17.4310    8.3560 S   0  0  0  0  0  0
   -8.0790  -21.0240    6.0820 H   0  0  0  0  0  0
   -9.7660  -21.4880    6.1090 H   0  0  0  0  0  0
  -10.9420  -18.5590    7.5120 H   0  0  0  0  0  0
  -11.3200  -20.1480    6.8860 H   0  0  0  0  0  0
   -6.9060  -19.0780    5.6370 H   0  0  0  0  0  0
   -2.6600  -17.4290    6.4740 H   0  0  0  0  0  0
   -3.8590  -20.0400    5.4330 H   0  0  0  0  0  0
   -4.1760  -19.4300    7.0340 H   0  0  0  0  0  0
   -2.4310  -20.9300    7.0030 H   0  0  0  0  0  0
   -4.2430  -17.9110    3.1640 H   0  0  0  0  0  0
   -3.0100  -17.8200    1.0190 H   0  0  0  0  0  0
   -0.5210  -17.8220    1.0100 H   0  0  0  0  0  0
    0.7270  -17.8970    3.1650 H   0  0  0  0  0  0
   -0.5050  -17.9790    5.3160 H   0  0  0  0  0  0
   -3.5240  -15.4780    7.1480 H   0  0  0  0  0  0
   -4.6930  -14.4830    9.0980 H   0  0  0  0  0  0
   -6.9780  -15.2600    9.7040 H   0  0  0  0  0  0
  1  2  2  0  0  0
  1 23  1  0  0  0
  1 24  1  0  0  0
  2  3  1  0  0  0
  2  4  1  0  0  0
  3 25  1  0  0  0
  3 26  1  0  0  0
  4 22  1  0  0  0
  4  5  2  0  0  0
  5  6  1  0  0  0
  5 27  1  0  0  0
  6 21  2  0  0  0
  6  7  1  0  0  0
  7  8  1  0  0  0
  7 18  2  0  0  0
  8  9  1  0  0  0
  9 10  1  0  0  0
  9 12  1  0  0  0
  9 28  1  0  0  0
 10 11  1  0  0  0
 10 29  1  0  0  0
 10 30  1  0  0  0
 11 31  1  0  0  0
 12 17  2  0  0  0
 12 13  1  0  0  0
 13 14  2  0  0  0
 13 32  1  0  0  0
 14 15  1  0  0  0
 14 33  1  0  0  0
 15 16  2  0  0  0
 15 34  1  0  0  0
 16 17  1  0  0  0
 16 35  1  0  0  0
 17 36  1  0  0  0
 18 19  1  0  0  0
 18 37  1  0  0  0
 19 20  2  0  0  0
 19 38  1  0  0  0
 20 21  1  0  0  0
 20 39  1  0  0  0
 21 22  1  0  0  0
M  CHG  1   1   1
M  END
> <s_m_entry_id>
196

> <s_m_entry_name>
4FU9_chembl_144.1

> <s_pdb_PDB_TITLE>
CRYSTAL STRUCTURE OF THE UROKINASE

> <s_pdb_PDB_format_version>
3.30

> <s_m_Source_Path>
/Users/mmunicoy/Documents/NBD/Projects/JJ/urokinase

> <s_m_Source_File>
4FU9_chembl_144.pdb

> <i_m_Source_File_Index>
1

> <s_pdb_PDB_ID>
4FU9

> <r_pdb_PDB_CRYST1_a>
55.1

> <r_pdb_PDB_CRYST1_b>
52.4

> <r_pdb_PDB_CRYST1_c>
80.25

> <r_pdb_PDB_CRYST1_alpha>
90

> <r_pdb_PDB_CRYST1_beta>
90

> <r_pdb_PDB_CRYST1_gamma>
90

> <s_pdb_PDB_CRYST1_Space_Group>
P 21 21 21

> <i_pdb_PDB_CRYST1_z>
4

> <s_pdb_PDB_CLASSIFICATION>
HYDROLASE/HYDROLASE INHIBITOR

> <s_pdb_PDB_DEPOSITION_DATE>
28-JUN-12

> <r_pdb_PDB_R>
0.15

> <r_pdb_PDB_Rfree>
0.182

> <r_pdb_PDB_RESOLUTION>
1.6

> <s_pdb_PDB_EXPDTA>
X-RAY DIFFRACTION

> <r_pdb_PDB_EXPDTA_TEMPERATURE>
160

> <r_pdb_PDB_EXPDTA_PH>
4.8

> <s_pdb_PDB_REMARK_350_Biomolecule_1_Transform_1_Chains>
A

> <s_pdb_PDB_REMARK_350_Biomolecule_1_Transform_1_Matrix_1>
1.000000 0.000000 0.000000   0.000000;0.000000 1.000000 0.000000   0.000000;0.000000 0.000000 1.000000   0.000000

> <s_m_subgroup_title>
ligands

> <s_m_subgroupid>
ligands1

> <b_m_subgroup_collapsed>
0

$$$$
chembl_147
                    3D
 Schrodinger Suite 2021-4.
 34 36  0  0  1  0            999 V2000
   -8.9620  -20.8730    6.7010 N   0  3  0  0  0  0
   -9.3370  -19.6530    7.0840 C   0  0  0  0  0  0
  -10.6420  -19.4310    7.1010 N   0  0  0  0  0  0
   -8.4070  -18.5720    7.4150 C   0  0  0  0  0  0
   -8.7740  -17.5990    8.3730 C   0  0  0  0  0  0
   -7.9120  -16.5280    8.6690 C   0  0  0  0  0  0
   -6.6730  -16.4210    8.0090 C   0  0  0  0  0  0
   -5.8080  -15.3500    8.3010 C   0  0  0  0  0  0
   -4.5740  -15.2210    7.6330 C   0  0  0  0  0  0
   -3.7120  -14.1570    7.9180 N   0  0  0  0  0  0
   -3.8400  -12.7840    7.9040 C   0  0  0  0  0  0
   -4.9920  -12.2330    7.5010 N   0  0  0  0  0  0
   -5.0420  -10.8830    7.5010 C   0  0  0  0  0  0
   -3.9540  -10.0940    7.9080 C   0  0  0  0  0  0
   -2.7980  -10.7860    8.3010 C   0  0  0  0  0  0
   -2.7520  -12.1330    8.3050 N   0  0  0  0  0  0
   -4.1870  -16.2070    6.7010 C   0  0  0  0  0  0
   -5.0490  -17.2810    6.4000 C   0  0  0  0  0  0
   -6.2960  -17.3900    7.0480 C   0  0  0  0  0  0
   -7.1680  -18.4560    6.7480 C   0  0  0  0  0  0
   -7.9820  -21.1120    6.6640 H   0  0  0  0  0  0
   -9.6590  -21.5580    6.4470 H   0  0  0  0  0  0
  -10.9970  -18.5280    7.3810 H   0  0  0  0  0  0
  -11.2820  -20.1650    6.8340 H   0  0  0  0  0  0
   -9.7230  -17.6750    8.8830 H   0  0  0  0  0  0
   -8.2000  -15.7890    9.4020 H   0  0  0  0  0  0
   -6.0870  -14.6170    9.0440 H   0  0  0  0  0  0
   -2.7620  -14.3410    8.2090 H   0  0  0  0  0  0
   -5.9400  -10.3750    7.1810 H   0  0  0  0  0  0
   -4.0370   -9.0170    7.9060 H   0  0  0  0  0  0
   -1.9190  -10.2390    8.6090 H   0  0  0  0  0  0
   -3.2260  -16.1410    6.2130 H   0  0  0  0  0  0
   -4.7530  -18.0220    5.6720 H   0  0  0  0  0  0
   -6.8850  -19.1850    6.0040 H   0  0  0  0  0  0
  1  2  2  0  0  0
  1 21  1  0  0  0
  1 22  1  0  0  0
  2  3  1  0  0  0
  2  4  1  0  0  0
  3 23  1  0  0  0
  3 24  1  0  0  0
  4 20  2  0  0  0
  4  5  1  0  0  0
  5  6  2  0  0  0
  5 25  1  0  0  0
  6  7  1  0  0  0
  6 26  1  0  0  0
  7 19  2  0  0  0
  7  8  1  0  0  0
  8  9  2  0  0  0
  8 27  1  0  0  0
  9 10  1  0  0  0
  9 17  1  0  0  0
 10 11  1  0  0  0
 10 28  1  0  0  0
 11 16  2  0  0  0
 11 12  1  0  0  0
 12 13  2  0  0  0
 13 14  1  0  0  0
 13 29  1  0  0  0
 14 15  2  0  0  0
 14 30  1  0  0  0
 15 16  1  0  0  0
 15 31  1  0  0  0
 17 18  2  0  0  0
 17 32  1  0  0  0
 18 19  1  0  0  0
 18 33  1  0  0  0
 19 20  1  0  0  0
 20 34  1  0  0  0
M  CHG  1   1   1
M  END
> <s_m_entry_id>
197

> <s_m_entry_name>
4FU9_chembl_147.1

> <s_pdb_PDB_TITLE>
CRYSTAL STRUCTURE OF THE UROKINASE

> <s_pdb_PDB_format_version>
3.30

> <s_m_Source_Path>
/Users/mmunicoy/Documents/NBD/Projects/JJ/urokinase

> <s_m_Source_File>
4FU9_chembl_147.pdb

> <i_m_Source_File_Index>
1

> <s_pdb_PDB_ID>
4FU9

> <r_pdb_PDB_CRYST1_a>
55.1

> <r_pdb_PDB_CRYST1_b>
52.4

> <r_pdb_PDB_CRYST1_c>
80.25

> <r_pdb_PDB_CRYST1_alpha>
90

> <r_pdb_PDB_CRYST1_beta>
90

> <r_pdb_PDB_CRYST1_gamma>
90

> <s_pdb_PDB_CRYST1_Space_Group>
P 21 21 21

> <i_pdb_PDB_CRYST1_z>
4

> <s_pdb_PDB_CLASSIFICATION>
HYDROLASE/HYDROLASE INHIBITOR

> <s_pdb_PDB_DEPOSITION_DATE>
28-JUN-12

> <r_pdb_PDB_R>
0.15

> <r_pdb_PDB_Rfree>
0.182

> <r_pdb_PDB_RESOLUTION>
1.6

> <s_pdb_PDB_EXPDTA>
X-RAY DIFFRACTION

> <r_pdb_PDB_EXPDTA_TEMPERATURE>
160

> <r_pdb_PDB_EXPDTA_PH>
4.8

> <s_pdb_PDB_REMARK_350_Biomolecule_1_Transform_1_Chains>
A

> <s_pdb_PDB_REMARK_350_Biomolecule_1_Transform_1_Matrix_1>
1.000000 0.000000 0.000000   0.000000;0.000000 1.000000 0.000000   0.000000;0.000000 0.000000 1.000000   0.000000

> <s_m_subgroup_title>
ligands

> <s_m_subgroupid>
ligands1

> <b_m_subgroup_collapsed>
0

$$$$
chembl_148
                    3D
 Schrodinger Suite 2021-4.
 40 43  0  0  1  0            999 V2000
    0.3190  -13.4510   11.6420 N   0  0  0  0  0  0
   -0.1570  -14.7480   11.5010 C   0  0  0  0  0  0
    0.5650  -15.8310   12.0320 C   0  0  0  0  0  0
    0.0370  -17.1260   11.8840 C   0  0  0  0  0  0
   -1.1950  -17.2790   11.2160 C   0  0  0  0  0  0
   -1.7630  -18.5610   11.0760 C   0  0  0  0  0  0
   -2.9970  -18.7090   10.4210 C   0  0  0  0  0  0
   -3.6630  -17.5820    9.9070 C   0  0  0  0  0  0
   -3.0970  -16.2950   10.0420 C   0  0  0  0  0  0
   -3.7440  -15.1590    9.5390 N   0  0  0  0  0  0
   -4.2150  -14.8580    7.9010 S   0  0  0  0  0  0
   -3.0200  -15.1280    7.0870 O   0  0  0  0  0  0
   -4.8470  -13.5300    7.9010 O   0  0  0  0  0  0
   -5.4550  -16.0980    7.5630 C   0  0  0  0  0  0
   -5.1810  -17.1260    6.6400 C   0  0  0  0  0  0
   -6.1510  -18.1150    6.3930 C   0  0  0  0  0  0
   -7.3870  -18.0770    7.0690 C   0  0  0  0  0  0
   -8.3650  -19.0580    6.8100 C   0  0  0  0  0  0
   -9.5910  -19.0310    7.5010 C   0  0  0  0  0  0
   -9.8420  -18.0250    8.4530 C   0  0  0  0  0  0
   -8.8750  -17.0310    8.7010 C   0  0  0  0  0  0
   -7.6500  -17.0490    8.0070 C   0  0  0  0  0  0
   -6.6830  -16.0520    8.2500 C   0  0  0  0  0  0
   -1.8570  -16.1270   10.7040 C   0  0  0  0  0  0
   -1.3320  -14.8850   10.8600 N   0  0  0  0  0  0
    1.1960  -13.2830   12.1130 H   0  0  0  0  0  0
   -0.2120  -12.6760   11.2720 H   0  0  0  0  0  0
    1.5020  -15.6590   12.5390 H   0  0  0  0  0  0
    0.5730  -17.9760   12.2790 H   0  0  0  0  0  0
   -1.2510  -19.4240   11.4730 H   0  0  0  0  0  0
   -3.4350  -19.6890   10.3100 H   0  0  0  0  0  0
   -4.6130  -17.6980    9.4070 H   0  0  0  0  0  0
   -3.9850  -14.4000   10.1590 H   0  0  0  0  0  0
   -4.2320  -17.1510    6.1260 H   0  0  0  0  0  0
   -5.9480  -18.9050    5.6850 H   0  0  0  0  0  0
   -8.1750  -19.8310    6.0810 H   0  0  0  0  0  0
  -10.3400  -19.7830    7.3000 H   0  0  0  0  0  0
  -10.7760  -18.0140    8.9950 H   0  0  0  0  0  0
   -9.0730  -16.2540    9.4240 H   0  0  0  0  0  0
   -6.8770  -15.2580    8.9560 H   0  0  0  0  0  0
  1  2  1  0  0  0
  1 26  1  0  0  0
  1 27  1  0  0  0
  2 25  2  0  0  0
  2  3  1  0  0  0
  3  4  2  0  0  0
  3 28  1  0  0  0
  4  5  1  0  0  0
  4 29  1  0  0  0
  5 24  2  0  0  0
  5  6  1  0  0  0
  6  7  2  0  0  0
  6 30  1  0  0  0
  7  8  1  0  0  0
  7 31  1  0  0  0
  8  9  2  0  0  0
  8 32  1  0  0  0
  9 10  1  0  0  0
  9 24  1  0  0  0
 10 11  1  0  0  0
 10 33  1  0  0  0
 11 12  2  0  0  0
 11 13  2  0  0  0
 11 14  1  0  0  0
 14 23  2  0  0  0
 14 15  1  0  0  0
 15 16  2  0  0  0
 15 34  1  0  0  0
 16 17  1  0  0  0
 16 35  1  0  0  0
 17 22  2  0  0  0
 17 18  1  0  0  0
 18 19  2  0  0  0
 18 36  1  0  0  0
 19 20  1  0  0  0
 19 37  1  0  0  0
 20 21  2  0  0  0
 20 38  1  0  0  0
 21 22  1  0  0  0
 21 39  1  0  0  0
 22 23  1  0  0  0
 23 40  1  0  0  0
 24 25  1  0  0  0
M  END
> <s_m_entry_id>
198

> <s_m_entry_name>
4FU9_chembl_148.1

> <s_pdb_PDB_TITLE>
CRYSTAL STRUCTURE OF THE UROKINASE

> <s_pdb_PDB_format_version>
3.30

> <s_m_Source_Path>
/Users/mmunicoy/Documents/NBD/Projects/JJ/urokinase

> <s_m_Source_File>
4FU9_chembl_148.pdb

> <i_m_Source_File_Index>
1

> <s_pdb_PDB_ID>
4FU9

> <r_pdb_PDB_CRYST1_a>
55.1

> <r_pdb_PDB_CRYST1_b>
52.4

> <r_pdb_PDB_CRYST1_c>
80.25

> <r_pdb_PDB_CRYST1_alpha>
90

> <r_pdb_PDB_CRYST1_beta>
90

> <r_pdb_PDB_CRYST1_gamma>
90

> <s_pdb_PDB_CRYST1_Space_Group>
P 21 21 21

> <i_pdb_PDB_CRYST1_z>
4

> <s_pdb_PDB_CLASSIFICATION>
HYDROLASE/HYDROLASE INHIBITOR

> <s_pdb_PDB_DEPOSITION_DATE>
28-JUN-12

> <r_pdb_PDB_R>
0.15

> <r_pdb_PDB_Rfree>
0.182

> <r_pdb_PDB_RESOLUTION>
1.6

> <s_pdb_PDB_EXPDTA>
X-RAY DIFFRACTION

> <r_pdb_PDB_EXPDTA_TEMPERATURE>
160

> <r_pdb_PDB_EXPDTA_PH>
4.8

> <s_pdb_PDB_REMARK_350_Biomolecule_1_Transform_1_Chains>
A

> <s_pdb_PDB_REMARK_350_Biomolecule_1_Transform_1_Matrix_1>
1.000000 0.000000 0.000000   0.000000;0.000000 1.000000 0.000000   0.000000;0.000000 0.000000 1.000000   0.000000

> <s_m_subgroup_title>
ligands

> <s_m_subgroupid>
ligands1

> <b_m_subgroup_collapsed>
0

$$$$
chembl_149
                    3D
 Schrodinger Suite 2021-4.
 40 42  0  0  1  0            999 V2000
   -8.6450  -20.7760    6.7010 N   0  3  0  0  0  0
   -9.1120  -19.5730    7.0570 C   0  0  0  0  0  0
  -10.4420  -19.4310    7.1010 N   0  0  0  0  0  0
   -8.2150  -18.4500    7.3680 C   0  0  0  0  0  0
   -8.5620  -17.4730    8.3300 C   0  0  0  0  0  0
   -7.6690  -16.4270    8.6450 C   0  0  0  0  0  0
   -6.4150  -16.3470    8.0030 C   0  0  0  0  0  0
   -5.4970  -15.3300    8.3330 C   0  0  0  0  0  0
   -4.2460  -15.2430    7.6680 C   0  0  0  0  0  0
   -3.2800  -14.2430    7.9660 N   0  0  0  0  0  0
   -3.5170  -12.9500    8.2540 C   0  0  0  0  0  0
   -4.6420  -12.4550    8.3010 O   0  0  0  0  0  0
   -2.3840  -12.2590    8.4720 N   0  0  0  0  0  0
   -2.2610  -10.8770    8.7910 C   0  0  0  0  0  0
   -3.1810   -9.8920    8.3550 C   0  0  0  0  0  0
   -2.9950   -8.5390    8.7030 C   0  0  0  0  0  0
   -1.8860   -8.1570    9.4840 C   0  0  0  0  0  0
   -0.9590   -9.1300    9.9030 C   0  0  0  0  0  0
   -1.1410  -10.4800    9.5520 C   0  0  0  0  0  0
   -3.9120  -16.2150    6.7020 C   0  0  0  0  0  0
   -4.8250  -17.2340    6.3700 C   0  0  0  0  0  0
   -6.0760  -17.3030    7.0180 C   0  0  0  0  0  0
   -6.9780  -18.3330    6.6990 C   0  0  0  0  0  0
   -7.6500  -20.9360    6.6520 H   0  0  0  0  0  0
   -9.2890  -21.5220    6.4810 H   0  0  0  0  0  0
  -10.8470  -18.5440    7.3640 H   0  0  0  0  0  0
  -11.0410  -20.2110    6.8720 H   0  0  0  0  0  0
   -9.5180  -17.5240    8.8300 H   0  0  0  0  0  0
   -7.9450  -15.6850    9.3800 H   0  0  0  0  0  0
   -5.7420  -14.6090    9.0990 H   0  0  0  0  0  0
   -2.2970  -14.4760    7.9760 H   0  0  0  0  0  0
   -1.4900  -12.7260    8.4160 H   0  0  0  0  0  0
   -4.0310  -10.1760    7.7510 H   0  0  0  0  0  0
   -3.7020   -7.7940    8.3720 H   0  0  0  0  0  0
   -1.7490   -7.1210    9.7580 H   0  0  0  0  0  0
   -0.1050   -8.8400   10.4970 H   0  0  0  0  0  0
   -0.4150  -11.2140    9.8690 H   0  0  0  0  0  0
   -2.9510  -16.1800    6.2110 H   0  0  0  0  0  0
   -4.5690  -17.9650    5.6180 H   0  0  0  0  0  0
   -6.7110  -19.0410    5.9280 H   0  0  0  0  0  0
  1  2  2  0  0  0
  1 24  1  0  0  0
  1 25  1  0  0  0
  2  3  1  0  0  0
  2  4  1  0  0  0
  3 26  1  0  0  0
  3 27  1  0  0  0
  4 23  2  0  0  0
  4  5  1  0  0  0
  5  6  2  0  0  0
  5 28  1  0  0  0
  6  7  1  0  0  0
  6 29  1  0  0  0
  7 22  2  0  0  0
  7  8  1  0  0  0
  8  9  2  0  0  0
  8 30  1  0  0  0
  9 10  1  0  0  0
  9 20  1  0  0  0
 10 11  1  0  0  0
 10 31  1  0  0  0
 11 12  2  0  0  0
 11 13  1  0  0  0
 13 14  1  0  0  0
 13 32  1  0  0  0
 14 19  2  0  0  0
 14 15  1  0  0  0
 15 16  2  0  0  0
 15 33  1  0  0  0
 16 17  1  0  0  0
 16 34  1  0  0  0
 17 18  2  0  0  0
 17 35  1  0  0  0
 18 19  1  0  0  0
 18 36  1  0  0  0
 19 37  1  0  0  0
 20 21  2  0  0  0
 20 38  1  0  0  0
 21 22  1  0  0  0
 21 39  1  0  0  0
 22 23  1  0  0  0
 23 40  1  0  0  0
M  CHG  1   1   1
M  END
> <s_m_entry_id>
199

> <s_m_entry_name>
4FU9_chembl_149.1

> <s_pdb_PDB_TITLE>
CRYSTAL STRUCTURE OF THE UROKINASE

> <s_pdb_PDB_format_version>
3.30

> <s_m_Source_Path>
/Users/mmunicoy/Documents/NBD/Projects/JJ/urokinase

> <s_m_Source_File>
4FU9_chembl_149.pdb

> <i_m_Source_File_Index>
1

> <s_pdb_PDB_ID>
4FU9

> <r_pdb_PDB_CRYST1_a>
55.1

> <r_pdb_PDB_CRYST1_b>
52.4

> <r_pdb_PDB_CRYST1_c>
80.25

> <r_pdb_PDB_CRYST1_alpha>
90

> <r_pdb_PDB_CRYST1_beta>
90

> <r_pdb_PDB_CRYST1_gamma>
90

> <s_pdb_PDB_CRYST1_Space_Group>
P 21 21 21

> <i_pdb_PDB_CRYST1_z>
4

> <s_pdb_PDB_CLASSIFICATION>
HYDROLASE/HYDROLASE INHIBITOR

> <s_pdb_PDB_DEPOSITION_DATE>
28-JUN-12

> <r_pdb_PDB_R>
0.15

> <r_pdb_PDB_Rfree>
0.182

> <r_pdb_PDB_RESOLUTION>
1.6

> <s_pdb_PDB_EXPDTA>
X-RAY DIFFRACTION

> <r_pdb_PDB_EXPDTA_TEMPERATURE>
160

> <r_pdb_PDB_EXPDTA_PH>
4.8

> <s_pdb_PDB_REMARK_350_Biomolecule_1_Transform_1_Chains>
A

> <s_pdb_PDB_REMARK_350_Biomolecule_1_Transform_1_Matrix_1>
1.000000 0.000000 0.000000   0.000000;0.000000 1.000000 0.000000   0.000000;0.000000 0.000000 1.000000   0.000000

> <s_m_subgroup_title>
ligands

> <s_m_subgroupid>
ligands1

> <b_m_subgroup_collapsed>
0

$$$$
chembl_151
                    3D
 Schrodinger Suite 2021-4.
 46 49  0  0  1  0            999 V2000
   -8.9980  -20.9050    6.7010 N   0  3  0  0  0  0
   -9.3440  -19.6820    7.1010 C   0  0  0  0  0  0
  -10.6420  -19.4310    7.1010 N   0  0  0  0  0  0
   -8.3950  -18.6310    7.4820 C   0  0  0  0  0  0
   -8.8090  -17.5890    8.3450 C   0  0  0  0  0  0
   -7.9170  -16.5620    8.7010 C   0  0  0  0  0  0
   -6.6010  -16.5690    8.2040 C   0  0  0  0  0  0
   -5.6930  -15.5680    8.5980 C   0  0  0  0  0  0
   -4.3740  -15.5760    8.1070 C   0  0  0  0  0  0
   -3.4390  -14.5680    8.5720 C   0  0  0  0  0  0
   -2.6890  -13.7360    9.0580 C   0  0  0  0  0  0
   -1.8420  -12.7680    9.7320 C   0  0  0  0  0  0
   -1.7350  -11.4530    9.2370 C   0  0  0  0  0  0
   -0.9590  -10.5030    9.9290 C   0  0  0  0  0  0
   -0.2830  -10.8620   11.1150 C   0  0  0  0  0  0
   -0.3750  -12.1890   11.6000 C   0  0  0  0  0  0
   -1.1580  -13.1360   10.9080 C   0  0  0  0  0  0
    0.3320  -12.5880   12.8860 C   0  0  0  0  0  0
    1.4570  -11.6160   13.2600 C   0  0  0  0  0  0
    0.9580  -10.2310   13.2020 N   0  3  0  0  0  0
    0.5580   -9.8180   11.8400 C   0  0  0  0  0  0
   -3.9640  -16.5790    7.2040 C   0  0  0  0  0  0
   -4.8670  -17.5890    6.8140 C   0  0  0  0  0  0
   -6.1830  -17.5950    7.3210 C   0  0  0  0  0  0
   -7.0820  -18.6210    6.9660 C   0  0  0  0  0  0
   -8.0240  -21.1710    6.6740 H   0  0  0  0  0  0
   -9.7100  -21.5660    6.4250 H   0  0  0  0  0  0
  -10.9810  -18.5250    7.3920 H   0  0  0  0  0  0
  -11.2940  -20.1450    6.8100 H   0  0  0  0  0  0
   -9.8160  -17.5780    8.7340 H   0  0  0  0  0  0
   -8.2420  -15.7670    9.3560 H   0  0  0  0  0  0
   -6.0090  -14.7910    9.2790 H   0  0  0  0  0  0
   -2.2470  -11.1740    8.3280 H   0  0  0  0  0  0
   -0.8790   -9.4940    9.5530 H   0  0  0  0  0  0
   -1.2330  -14.1460   11.2830 H   0  0  0  0  0  0
    0.7420  -13.5920   12.7780 H   0  0  0  0  0  0
   -0.3930  -12.6340   13.6990 H   0  0  0  0  0  0
    2.2850  -11.7330   12.5610 H   0  0  0  0  0  0
    1.8050  -11.8350   14.2690 H   0  0  0  0  0  0
    1.6700   -9.6030   13.5480 H   0  0  0  0  0  0
    0.1710  -10.1320   13.8280 H   0  0  0  0  0  0
    0.0040   -8.8810   11.8940 H   0  0  0  0  0  0
    1.4490   -9.5990   11.2520 H   0  0  0  0  0  0
   -2.9580  -16.5740    6.8110 H   0  0  0  0  0  0
   -4.5520  -18.3590    6.1250 H   0  0  0  0  0  0
   -6.7600  -19.4030    6.2940 H   0  0  0  0  0  0
  1  2  2  0  0  0
  1 26  1  0  0  0
  1 27  1  0  0  0
  2  3  1  0  0  0
  2  4  1  0  0  0
  3 28  1  0  0  0
  3 29  1  0  0  0
  4 25  2  0  0  0
  4  5  1  0  0  0
  5  6  2  0  0  0
  5 30  1  0  0  0
  6  7  1  0  0  0
  6 31  1  0  0  0
  7 24  2  0  0  0
  7  8  1  0  0  0
  8  9  2  0  0  0
  8 32  1  0  0  0
  9 10  1  0  0  0
  9 22  1  0  0  0
 10 11  3  0  0  0
 11 12  1  0  0  0
 12 17  2  0  0  0
 12 13  1  0  0  0
 13 14  2  0  0  0
 13 33  1  0  0  0
 14 15  1  0  0  0
 14 34  1  0  0  0
 15 21  1  0  0  0
 15 16  2  0  0  0
 16 17  1  0  0  0
 16 18  1  0  0  0
 17 35  1  0  0  0
 18 19  1  0  0  0
 18 36  1  0  0  0
 18 37  1  0  0  0
 19 20  1  0  0  0
 19 38  1  0  0  0
 19 39  1  0  0  0
 20 21  1  0  0  0
 20 40  1  0  0  0
 20 41  1  0  0  0
 21 42  1  0  0  0
 21 43  1  0  0  0
 22 23  2  0  0  0
 22 44  1  0  0  0
 23 24  1  0  0  0
 23 45  1  0  0  0
 24 25  1  0  0  0
 25 46  1  0  0  0
M  CHG  2   1   1  20   1
M  END
> <s_m_entry_id>
200

> <s_m_entry_name>
4FU9_chembl_151.1

> <s_pdb_PDB_TITLE>
CRYSTAL STRUCTURE OF THE UROKINASE

> <s_pdb_PDB_format_version>
3.30

> <s_m_Source_Path>
/Users/mmunicoy/Documents/NBD/Projects/JJ/urokinase

> <s_m_Source_File>
4FU9_chembl_151.pdb

> <i_m_Source_File_Index>
1

> <s_pdb_PDB_ID>
4FU9

> <r_pdb_PDB_CRYST1_a>
55.1

> <r_pdb_PDB_CRYST1_b>
52.4

> <r_pdb_PDB_CRYST1_c>
80.25

> <r_pdb_PDB_CRYST1_alpha>
90

> <r_pdb_PDB_CRYST1_beta>
90

> <r_pdb_PDB_CRYST1_gamma>
90

> <s_pdb_PDB_CRYST1_Space_Group>
P 21 21 21

> <i_pdb_PDB_CRYST1_z>
4

> <s_pdb_PDB_CLASSIFICATION>
HYDROLASE/HYDROLASE INHIBITOR

> <s_pdb_PDB_DEPOSITION_DATE>
28-JUN-12

> <r_pdb_PDB_R>
0.15

> <r_pdb_PDB_Rfree>
0.182

> <r_pdb_PDB_RESOLUTION>
1.6

> <s_pdb_PDB_EXPDTA>
X-RAY DIFFRACTION

> <r_pdb_PDB_EXPDTA_TEMPERATURE>
160

> <r_pdb_PDB_EXPDTA_PH>
4.8

> <s_pdb_PDB_REMARK_350_Biomolecule_1_Transform_1_Chains>
A

> <s_pdb_PDB_REMARK_350_Biomolecule_1_Transform_1_Matrix_1>
1.000000 0.000000 0.000000   0.000000;0.000000 1.000000 0.000000   0.000000;0.000000 0.000000 1.000000   0.000000

> <s_m_subgroup_title>
ligands

> <s_m_subgroupid>
ligands1

> <b_m_subgroup_collapsed>
0

$$$$
chembl_152
                    3D
 Schrodinger Suite 2021-4.
 40 42  0  0  1  0            999 V2000
  -10.6420  -19.4310    7.1010 N   0  3  0  0  0  0
   -9.3360  -19.6670    7.1010 C   0  0  0  0  0  0
   -8.9820  -20.8880    6.7010 N   0  0  0  0  0  0
   -8.3850  -18.6160    7.4940 C   0  0  0  0  0  0
   -8.8210  -17.5540    8.3180 C   0  0  0  0  0  0
   -7.9310  -16.5370    8.7010 C   0  0  0  0  0  0
   -6.5900  -16.5730    8.2780 C   0  0  0  0  0  0
   -5.7040  -15.5680    8.7100 C   0  0  0  0  0  0
   -4.3560  -15.5870    8.3120 C   0  0  0  0  0  0
   -3.4060  -14.5120    8.8130 C   0  0  0  0  0  0
   -3.0790  -14.6310   10.3130 C   0  0  0  0  0  0
   -2.4420  -15.9550   10.7030 C   0  0  0  0  0  0
   -3.2430  -17.0480   11.1010 C   0  0  0  0  0  0
   -2.6420  -18.2600   11.4950 C   0  0  0  0  0  0
   -1.2390  -18.3840   11.5010 C   0  0  0  0  0  0
   -0.4380  -17.2980   11.1010 C   0  0  0  0  0  0
   -1.0380  -16.0880   10.7010 C   0  0  0  0  0  0
   -3.8990  -16.6160    7.4650 C   0  0  0  0  0  0
   -4.7740  -17.6300    7.0290 C   0  0  0  0  0  0
   -4.0610  -18.9920    5.9010 Br  0  0  0  0  0  0
   -6.1330  -17.6210    7.4380 C   0  0  0  0  0  0
   -7.0430  -18.6310    7.0440 C   0  0  0  0  0  0
  -10.9920  -18.5290    7.3910 H   0  0  0  0  0  0
  -11.2860  -20.1530    6.8110 H   0  0  0  0  0  0
   -8.0070  -21.1470    6.6720 H   0  0  0  0  0  0
   -9.6900  -21.5540    6.4270 H   0  0  0  0  0  0
   -9.8460  -17.5200    8.6590 H   0  0  0  0  0  0
   -8.2750  -15.7230    9.3220 H   0  0  0  0  0  0
   -6.0600  -14.7750    9.3520 H   0  0  0  0  0  0
   -3.8340  -13.5300    8.6120 H   0  0  0  0  0  0
   -2.4810  -14.5500    8.2370 H   0  0  0  0  0  0
   -3.9900  -14.4830   10.8940 H   0  0  0  0  0  0
   -2.4210  -13.8130   10.6060 H   0  0  0  0  0  0
   -4.3190  -16.9560   11.1040 H   0  0  0  0  0  0
   -3.2570  -19.0960   11.7940 H   0  0  0  0  0  0
   -0.7810  -19.3120   11.8110 H   0  0  0  0  0  0
    0.6380  -17.3920   11.1000 H   0  0  0  0  0  0
   -0.4180  -15.2590   10.3920 H   0  0  0  0  0  0
   -2.8680  -16.6320    7.1430 H   0  0  0  0  0  0
   -6.7010  -19.4200    6.3910 H   0  0  0  0  0  0
  1  2  2  0  0  0
  1 23  1  0  0  0
  1 24  1  0  0  0
  2  3  1  0  0  0
  2  4  1  0  0  0
  3 25  1  0  0  0
  3 26  1  0  0  0
  4 22  2  0  0  0
  4  5  1  0  0  0
  5  6  2  0  0  0
  5 27  1  0  0  0
  6  7  1  0  0  0
  6 28  1  0  0  0
  7 21  2  0  0  0
  7  8  1  0  0  0
  8  9  2  0  0  0
  8 29  1  0  0  0
  9 10  1  0  0  0
  9 18  1  0  0  0
 10 11  1  0  0  0
 10 30  1  0  0  0
 10 31  1  0  0  0
 11 12  1  0  0  0
 11 32  1  0  0  0
 11 33  1  0  0  0
 12 17  2  0  0  0
 12 13  1  0  0  0
 13 14  2  0  0  0
 13 34  1  0  0  0
 14 15  1  0  0  0
 14 35  1  0  0  0
 15 16  2  0  0  0
 15 36  1  0  0  0
 16 17  1  0  0  0
 16 37  1  0  0  0
 17 38  1  0  0  0
 18 19  2  0  0  0
 18 39  1  0  0  0
 19 20  1  0  0  0
 19 21  1  0  0  0
 21 22  1  0  0  0
 22 40  1  0  0  0
M  CHG  1   1   1
M  END
> <s_m_entry_id>
201

> <s_m_entry_name>
4FU9_chembl_152.1

> <s_pdb_PDB_TITLE>
CRYSTAL STRUCTURE OF THE UROKINASE

> <s_pdb_PDB_format_version>
3.30

> <s_m_Source_Path>
/Users/mmunicoy/Documents/NBD/Projects/JJ/urokinase

> <s_m_Source_File>
4FU9_chembl_152.pdb

> <i_m_Source_File_Index>
1

> <s_pdb_PDB_ID>
4FU9

> <r_pdb_PDB_CRYST1_a>
55.1

> <r_pdb_PDB_CRYST1_b>
52.4

> <r_pdb_PDB_CRYST1_c>
80.25

> <r_pdb_PDB_CRYST1_alpha>
90

> <r_pdb_PDB_CRYST1_beta>
90

> <r_pdb_PDB_CRYST1_gamma>
90

> <s_pdb_PDB_CRYST1_Space_Group>
P 21 21 21

> <i_pdb_PDB_CRYST1_z>
4

> <s_pdb_PDB_CLASSIFICATION>
HYDROLASE/HYDROLASE INHIBITOR

> <s_pdb_PDB_DEPOSITION_DATE>
28-JUN-12

> <r_pdb_PDB_R>
0.15

> <r_pdb_PDB_Rfree>
0.182

> <r_pdb_PDB_RESOLUTION>
1.6

> <s_pdb_PDB_EXPDTA>
X-RAY DIFFRACTION

> <r_pdb_PDB_EXPDTA_TEMPERATURE>
160

> <r_pdb_PDB_EXPDTA_PH>
4.8

> <s_pdb_PDB_REMARK_350_Biomolecule_1_Transform_1_Chains>
A

> <s_pdb_PDB_REMARK_350_Biomolecule_1_Transform_1_Matrix_1>
1.000000 0.000000 0.000000   0.000000;0.000000 1.000000 0.000000   0.000000;0.000000 0.000000 1.000000   0.000000

> <s_m_subgroup_title>
ligands

> <s_m_subgroupid>
ligands1

> <b_m_subgroup_collapsed>
0

$$$$
chembl_153
                    3D
 Schrodinger Suite 2021-4.
 52 55  0  0  1  0            999 V2000
  -10.6420  -19.4310    7.1010 N   0  3  0  0  0  0
   -9.3370  -19.6620    7.1010 C   0  0  0  0  0  0
   -8.9650  -20.8770    6.7010 N   0  0  0  0  0  0
   -8.4140  -18.5960    7.4970 C   0  0  0  0  0  0
   -8.8760  -17.5880    8.3730 C   0  0  0  0  0  0
   -8.0340  -16.5290    8.7410 C   0  0  0  0  0  0
   -6.7180  -16.4780    8.2560 C   0  0  0  0  0  0
   -5.8770  -15.4310    8.6610 C   0  0  0  0  0  0
   -4.5580  -15.3390    8.1840 C   0  0  0  0  0  0
   -3.7360  -14.1630    8.6130 C   0  0  0  0  0  0
   -4.2420  -13.0400    8.6050 O   0  0  0  0  0  0
   -2.5000  -14.4450    9.0640 N   0  0  0  0  0  0
   -1.6350  -13.5560    9.7590 C   0  0  0  0  0  0
   -0.7900  -14.0900   10.7520 C   0  0  0  0  0  0
    0.0430  -13.2410   11.5060 C   0  0  0  0  0  0
    0.0410  -11.8520   11.2720 C   0  0  0  0  0  0
   -0.7840  -11.3020   10.2610 C   0  0  0  0  0  0
   -0.8790   -9.9610    9.9610 O   0  0  0  0  0  0
   -0.1140   -9.0180   10.7010 C   0  0  0  0  0  0
    1.3660   -8.9960   10.2750 C   0  0  0  0  0  0
    1.6990   -7.5470    9.9010 C   0  0  0  0  0  0
    0.5580   -6.7010   10.4630 C   0  0  0  0  0  0
   -0.6550   -7.6190   10.3890 C   0  0  0  0  0  0
   -1.5960  -12.1650    9.5010 C   0  0  0  0  0  0
   -4.0730  -16.3260    7.2950 C   0  0  0  0  0  0
   -4.9130  -17.3900    6.8930 C   0  0  0  0  0  0
   -6.2390  -17.4730    7.3720 C   0  0  0  0  0  0
   -7.0950  -18.5290    6.9880 C   0  0  0  0  0  0
  -10.9950  -18.5310    7.3930 H   0  0  0  0  0  0
  -11.2830  -20.1550    6.8090 H   0  0  0  0  0  0
   -7.9850  -21.1220    6.6760 H   0  0  0  0  0  0
   -9.6620  -21.5530    6.4230 H   0  0  0  0  0  0
   -9.8820  -17.6300    8.7620 H   0  0  0  0  0  0
   -8.3990  -15.7530    9.3980 H   0  0  0  0  0  0
   -6.2400  -14.6810    9.3480 H   0  0  0  0  0  0
   -2.1060  -15.3640    8.9170 H   0  0  0  0  0  0
   -0.7810  -15.1540   10.9380 H   0  0  0  0  0  0
    0.6880  -13.6540   12.2670 H   0  0  0  0  0  0
    0.6700  -11.2040   11.8650 H   0  0  0  0  0  0
   -0.1960   -9.2230   11.7680 H   0  0  0  0  0  0
    1.5020   -9.6370    9.4040 H   0  0  0  0  0  0
    1.9890   -9.3070   11.1140 H   0  0  0  0  0  0
    1.7220   -7.4500    8.8160 H   0  0  0  0  0  0
    2.6350   -7.2560   10.3790 H   0  0  0  0  0  0
    0.3970   -5.8380    9.8160 H   0  0  0  0  0  0
    0.7660   -6.4610   11.5050 H   0  0  0  0  0  0
   -1.3730   -7.3300   11.1560 H   0  0  0  0  0  0
   -1.0580   -7.6050    9.3770 H   0  0  0  0  0  0
   -2.1980  -11.7460    8.7080 H   0  0  0  0  0  0
   -3.0610  -16.2670    6.9220 H   0  0  0  0  0  0
   -4.5410  -18.1450    6.2150 H   0  0  0  0  0  0
   -6.7410  -19.2860    6.3040 H   0  0  0  0  0  0
  1  2  2  0  0  0
  1 29  1  0  0  0
  1 30  1  0  0  0
  2  3  1  0  0  0
  2  4  1  0  0  0
  3 31  1  0  0  0
  3 32  1  0  0  0
  4 28  2  0  0  0
  4  5  1  0  0  0
  5  6  2  0  0  0
  5 33  1  0  0  0
  6  7  1  0  0  0
  6 34  1  0  0  0
  7 27  2  0  0  0
  7  8  1  0  0  0
  8  9  2  0  0  0
  8 35  1  0  0  0
  9 10  1  0  0  0
  9 25  1  0  0  0
 10 11  2  0  0  0
 10 12  1  0  0  0
 12 13  1  0  0  0
 12 36  1  0  0  0
 13 24  2  0  0  0
 13 14  1  0  0  0
 14 15  2  0  0  0
 14 37  1  0  0  0
 15 16  1  0  0  0
 15 38  1  0  0  0
 16 17  2  0  0  0
 16 39  1  0  0  0
 17 18  1  0  0  0
 17 24  1  0  0  0
 18 19  1  0  0  0
 19 23  1  0  0  0
 19 20  1  0  0  0
 19 40  1  0  0  0
 20 21  1  0  0  0
 20 41  1  0  0  0
 20 42  1  0  0  0
 21 22  1  0  0  0
 21 43  1  0  0  0
 21 44  1  0  0  0
 22 23  1  0  0  0
 22 45  1  0  0  0
 22 46  1  0  0  0
 23 47  1  0  0  0
 23 48  1  0  0  0
 24 49  1  0  0  0
 25 26  2  0  0  0
 25 50  1  0  0  0
 26 27  1  0  0  0
 26 51  1  0  0  0
 27 28  1  0  0  0
 28 52  1  0  0  0
M  CHG  1   1   1
M  END
> <s_m_entry_id>
202

> <s_m_entry_name>
4FU9_chembl_153.1

> <s_pdb_PDB_TITLE>
CRYSTAL STRUCTURE OF THE UROKINASE

> <s_pdb_PDB_format_version>
3.30

> <s_m_Source_Path>
/Users/mmunicoy/Documents/NBD/Projects/JJ/urokinase

> <s_m_Source_File>
4FU9_chembl_153.pdb

> <i_m_Source_File_Index>
1

> <s_pdb_PDB_ID>
4FU9

> <r_pdb_PDB_CRYST1_a>
55.1

> <r_pdb_PDB_CRYST1_b>
52.4

> <r_pdb_PDB_CRYST1_c>
80.25

> <r_pdb_PDB_CRYST1_alpha>
90

> <r_pdb_PDB_CRYST1_beta>
90

> <r_pdb_PDB_CRYST1_gamma>
90

> <s_pdb_PDB_CRYST1_Space_Group>
P 21 21 21

> <i_pdb_PDB_CRYST1_z>
4

> <s_pdb_PDB_CLASSIFICATION>
HYDROLASE/HYDROLASE INHIBITOR

> <s_pdb_PDB_DEPOSITION_DATE>
28-JUN-12

> <r_pdb_PDB_R>
0.15

> <r_pdb_PDB_Rfree>
0.182

> <r_pdb_PDB_RESOLUTION>
1.6

> <s_pdb_PDB_EXPDTA>
X-RAY DIFFRACTION

> <r_pdb_PDB_EXPDTA_TEMPERATURE>
160

> <r_pdb_PDB_EXPDTA_PH>
4.8

> <s_pdb_PDB_REMARK_350_Biomolecule_1_Transform_1_Chains>
A

> <s_pdb_PDB_REMARK_350_Biomolecule_1_Transform_1_Matrix_1>
1.000000 0.000000 0.000000   0.000000;0.000000 1.000000 0.000000   0.000000;0.000000 0.000000 1.000000   0.000000

> <s_m_subgroup_title>
ligands

> <s_m_subgroupid>
ligands1

> <b_m_subgroup_collapsed>
0

$$$$
chembl_154
                    3D
 Schrodinger Suite 2021-4.
 38 40  0  0  1  0            999 V2000
  -10.6420  -19.4310    7.1010 N   0  3  0  0  0  0
   -9.3470  -19.6890    7.0850 C   0  0  0  0  0  0
   -9.0100  -20.9190    6.7010 N   0  0  0  0  0  0
   -8.3890  -18.6310    7.4110 C   0  0  0  0  0  0
   -8.7350  -17.6240    8.3410 C   0  0  0  0  0  0
   -7.8350  -16.5800    8.6280 C   0  0  0  0  0  0
   -6.5820  -16.5360    7.9870 C   0  0  0  0  0  0
   -5.6750  -15.4970    8.2750 C   0  0  0  0  0  0
   -4.4250  -15.4380    7.6170 C   0  0  0  0  0  0
   -3.4630  -14.3230    7.9010 C   0  0  0  0  0  0
   -2.2510  -14.5300    7.9060 O   0  0  0  0  0  0
   -4.0470  -13.1190    8.0460 N   0  0  0  0  0  0
   -3.4490  -11.8580    8.3020 C   0  0  0  0  0  0
   -4.1930  -10.7050    7.9670 C   0  0  0  0  0  0
   -3.6730   -9.4220    8.2230 C   0  0  0  0  0  0
   -2.4130   -9.2790    8.8340 C   0  0  0  0  0  0
   -1.6700  -10.4230    9.1800 C   0  0  0  0  0  0
   -2.1840  -11.7080    8.9200 C   0  0  0  0  0  0
   -4.0760  -16.4550    6.7010 C   0  0  0  0  0  0
   -4.9780  -17.4960    6.4110 C   0  0  0  0  0  0
   -6.2330  -17.5380    7.0490 C   0  0  0  0  0  0
   -7.1400  -18.5760    6.7600 C   0  0  0  0  0  0
  -10.9720  -18.5180    7.3810 H   0  0  0  0  0  0
  -11.3030  -20.1460    6.8330 H   0  0  0  0  0  0
   -8.0370  -21.1880    6.6640 H   0  0  0  0  0  0
   -9.7270  -21.5840    6.4470 H   0  0  0  0  0  0
   -9.6940  -17.6520    8.8370 H   0  0  0  0  0  0
   -8.1060  -15.8140    9.3400 H   0  0  0  0  0  0
   -5.9330  -14.7410    9.0010 H   0  0  0  0  0  0
   -5.0510  -13.0330    7.9750 H   0  0  0  0  0  0
   -5.1670  -10.8050    7.5120 H   0  0  0  0  0  0
   -4.2410   -8.5450    7.9510 H   0  0  0  0  0  0
   -2.0200   -8.2930    9.0360 H   0  0  0  0  0  0
   -0.7010  -10.3170    9.6470 H   0  0  0  0  0  0
   -1.6100  -12.5820    9.1920 H   0  0  0  0  0  0
   -3.1110  -16.4370    6.2170 H   0  0  0  0  0  0
   -4.7080  -18.2620    5.6990 H   0  0  0  0  0  0
   -6.8750  -19.3310    6.0350 H   0  0  0  0  0  0
  1  2  2  0  0  0
  1 23  1  0  0  0
  1 24  1  0  0  0
  2  3  1  0  0  0
  2  4  1  0  0  0
  3 25  1  0  0  0
  3 26  1  0  0  0
  4 22  2  0  0  0
  4  5  1  0  0  0
  5  6  2  0  0  0
  5 27  1  0  0  0
  6  7  1  0  0  0
  6 28  1  0  0  0
  7 21  2  0  0  0
  7  8  1  0  0  0
  8  9  2  0  0  0
  8 29  1  0  0  0
  9 10  1  0  0  0
  9 19  1  0  0  0
 10 11  2  0  0  0
 10 12  1  0  0  0
 12 13  1  0  0  0
 12 30  1  0  0  0
 13 18  2  0  0  0
 13 14  1  0  0  0
 14 15  2  0  0  0
 14 31  1  0  0  0
 15 16  1  0  0  0
 15 32  1  0  0  0
 16 17  2  0  0  0
 16 33  1  0  0  0
 17 18  1  0  0  0
 17 34  1  0  0  0
 18 35  1  0  0  0
 19 20  2  0  0  0
 19 36  1  0  0  0
 20 21  1  0  0  0
 20 37  1  0  0  0
 21 22  1  0  0  0
 22 38  1  0  0  0
M  CHG  1   1   1
M  END
> <s_m_entry_id>
203

> <s_m_entry_name>
4FU9_chembl_154.1

> <s_pdb_PDB_TITLE>
CRYSTAL STRUCTURE OF THE UROKINASE

> <s_pdb_PDB_format_version>
3.30

> <s_m_Source_Path>
/Users/mmunicoy/Documents/NBD/Projects/JJ/urokinase

> <s_m_Source_File>
4FU9_chembl_154.pdb

> <i_m_Source_File_Index>
1

> <s_pdb_PDB_ID>
4FU9

> <r_pdb_PDB_CRYST1_a>
55.1

> <r_pdb_PDB_CRYST1_b>
52.4

> <r_pdb_PDB_CRYST1_c>
80.25

> <r_pdb_PDB_CRYST1_alpha>
90

> <r_pdb_PDB_CRYST1_beta>
90

> <r_pdb_PDB_CRYST1_gamma>
90

> <s_pdb_PDB_CRYST1_Space_Group>
P 21 21 21

> <i_pdb_PDB_CRYST1_z>
4

> <s_pdb_PDB_CLASSIFICATION>
HYDROLASE/HYDROLASE INHIBITOR

> <s_pdb_PDB_DEPOSITION_DATE>
28-JUN-12

> <r_pdb_PDB_R>
0.15

> <r_pdb_PDB_Rfree>
0.182

> <r_pdb_PDB_RESOLUTION>
1.6

> <s_pdb_PDB_EXPDTA>
X-RAY DIFFRACTION

> <r_pdb_PDB_EXPDTA_TEMPERATURE>
160

> <r_pdb_PDB_EXPDTA_PH>
4.8

> <s_pdb_PDB_REMARK_350_Biomolecule_1_Transform_1_Chains>
A

> <s_pdb_PDB_REMARK_350_Biomolecule_1_Transform_1_Matrix_1>
1.000000 0.000000 0.000000   0.000000;0.000000 1.000000 0.000000   0.000000;0.000000 0.000000 1.000000   0.000000

> <s_m_subgroup_title>
ligands

> <s_m_subgroupid>
ligands1

> <b_m_subgroup_collapsed>
0

$$$$
chembl_155
                    3D
 Schrodinger Suite 2021-4.
 44 46  0  0  1  0            999 V2000
   -8.9500  -20.8610    6.7010 N   0  3  0  0  0  0
   -9.3330  -19.6490    7.1010 C   0  0  0  0  0  0
  -10.6420  -19.4310    7.1010 N   0  0  0  0  0  0
   -8.4140  -18.5780    7.5010 C   0  0  0  0  0  0
   -8.8880  -17.5660    8.3670 C   0  0  0  0  0  0
   -8.0480  -16.5130    8.7550 C   0  0  0  0  0  0
   -6.7200  -16.4690    8.3010 C   0  0  0  0  0  0
   -5.8810  -15.4310    8.7340 C   0  0  0  0  0  0
   -4.5520  -15.3370    8.2880 C   0  0  0  0  0  0
   -3.7380  -14.1560    8.7290 C   0  0  0  0  0  0
   -4.2420  -13.0310    8.7010 O   0  0  0  0  0  0
   -2.5160  -14.4320    9.2200 N   0  0  0  0  0  0
   -1.6010  -13.5150    9.8130 C   0  0  0  0  0  0
   -0.7330  -13.9990   10.8160 C   0  0  0  0  0  0
    0.2140  -13.1460   11.4190 C   0  0  0  0  0  0
    0.3140  -11.7970   11.0180 C   0  0  0  0  0  0
    1.3880  -10.8940   11.6030 C   0  0  0  0  0  0
    0.9580  -10.2310   12.8450 N   0  3  0  0  0  0
   -0.5550  -11.3070   10.0210 C   0  0  0  0  0  0
   -1.4990  -12.1600    9.4160 C   0  0  0  0  0  0
   -4.0520  -16.3250    7.4080 C   0  0  0  0  0  0
   -4.8880  -17.3850    6.9820 C   0  0  0  0  0  0
   -6.2280  -17.4640    7.4260 C   0  0  0  0  0  0
   -7.0830  -18.5150    7.0200 C   0  0  0  0  0  0
   -7.9690  -21.0970    6.6750 H   0  0  0  0  0  0
   -9.6420  -21.5430    6.4230 H   0  0  0  0  0  0
  -11.0050  -18.5350    7.3920 H   0  0  0  0  0  0
  -11.2760  -20.1620    6.8100 H   0  0  0  0  0  0
   -9.9030  -17.6010    8.7330 H   0  0  0  0  0  0
   -8.4230  -15.7340    9.4030 H   0  0  0  0  0  0
   -6.2540  -14.6860    9.4210 H   0  0  0  0  0  0
   -2.1610  -15.3770    9.1890 H   0  0  0  0  0  0
   -0.7920  -15.0310   11.1290 H   0  0  0  0  0  0
    0.8670  -13.5240   12.1920 H   0  0  0  0  0  0
    1.6670  -10.1400   10.8680 H   0  0  0  0  0  0
    2.2870  -11.4790   11.7970 H   0  0  0  0  0  0
    1.7050   -9.6460   13.1910 H   0  0  0  0  0  0
    0.1440   -9.6630   12.6600 H   0  0  0  0  0  0
    0.7300  -10.9290   13.5390 H   0  0  0  0  0  0
   -0.4990  -10.2720    9.7160 H   0  0  0  0  0  0
   -2.1480  -11.7730    8.6450 H   0  0  0  0  0  0
   -3.0310  -16.2720    7.0600 H   0  0  0  0  0  0
   -4.5030  -18.1410    6.3130 H   0  0  0  0  0  0
   -6.7170  -19.2710    6.3410 H   0  0  0  0  0  0
  1  2  2  0  0  0
  1 25  1  0  0  0
  1 26  1  0  0  0
  2  3  1  0  0  0
  2  4  1  0  0  0
  3 27  1  0  0  0
  3 28  1  0  0  0
  4 24  2  0  0  0
  4  5  1  0  0  0
  5  6  2  0  0  0
  5 29  1  0  0  0
  6  7  1  0  0  0
  6 30  1  0  0  0
  7 23  2  0  0  0
  7  8  1  0  0  0
  8  9  2  0  0  0
  8 31  1  0  0  0
  9 10  1  0  0  0
  9 21  1  0  0  0
 10 11  2  0  0  0
 10 12  1  0  0  0
 12 13  1  0  0  0
 12 32  1  0  0  0
 13 20  2  0  0  0
 13 14  1  0  0  0
 14 15  2  0  0  0
 14 33  1  0  0  0
 15 16  1  0  0  0
 15 34  1  0  0  0
 16 17  1  0  0  0
 16 19  2  0  0  0
 17 18  1  0  0  0
 17 35  1  0  0  0
 17 36  1  0  0  0
 18 37  1  0  0  0
 18 38  1  0  0  0
 18 39  1  0  0  0
 19 20  1  0  0  0
 19 40  1  0  0  0
 20 41  1  0  0  0
 21 22  2  0  0  0
 21 42  1  0  0  0
 22 23  1  0  0  0
 22 43  1  0  0  0
 23 24  1  0  0  0
 24 44  1  0  0  0
M  CHG  2   1   1  18   1
M  END
> <s_m_entry_id>
204

> <s_m_entry_name>
4FU9_chembl_155.1

> <s_pdb_PDB_TITLE>
CRYSTAL STRUCTURE OF THE UROKINASE

> <s_pdb_PDB_format_version>
3.30

> <s_m_Source_Path>
/Users/mmunicoy/Documents/NBD/Projects/JJ/urokinase

> <s_m_Source_File>
4FU9_chembl_155.pdb

> <i_m_Source_File_Index>
1

> <s_pdb_PDB_ID>
4FU9

> <r_pdb_PDB_CRYST1_a>
55.1

> <r_pdb_PDB_CRYST1_b>
52.4

> <r_pdb_PDB_CRYST1_c>
80.25

> <r_pdb_PDB_CRYST1_alpha>
90

> <r_pdb_PDB_CRYST1_beta>
90

> <r_pdb_PDB_CRYST1_gamma>
90

> <s_pdb_PDB_CRYST1_Space_Group>
P 21 21 21

> <i_pdb_PDB_CRYST1_z>
4

> <s_pdb_PDB_CLASSIFICATION>
HYDROLASE/HYDROLASE INHIBITOR

> <s_pdb_PDB_DEPOSITION_DATE>
28-JUN-12

> <r_pdb_PDB_R>
0.15

> <r_pdb_PDB_Rfree>
0.182

> <r_pdb_PDB_RESOLUTION>
1.6

> <s_pdb_PDB_EXPDTA>
X-RAY DIFFRACTION

> <r_pdb_PDB_EXPDTA_TEMPERATURE>
160

> <r_pdb_PDB_EXPDTA_PH>
4.8

> <s_pdb_PDB_REMARK_350_Biomolecule_1_Transform_1_Chains>
A

> <s_pdb_PDB_REMARK_350_Biomolecule_1_Transform_1_Matrix_1>
1.000000 0.000000 0.000000   0.000000;0.000000 1.000000 0.000000   0.000000;0.000000 0.000000 1.000000   0.000000

> <s_m_subgroup_title>
ligands

> <s_m_subgroupid>
ligands1

> <b_m_subgroup_collapsed>
0

$$$$
chembl_158
                    3D
 Schrodinger Suite 2021-4.
 53 56  0  0  1  0            999 V2000
  -10.6420  -19.4310    7.1010 N   0  3  0  0  0  0
   -9.3550  -19.6390    6.8670 C   0  0  0  0  0  0
   -9.0420  -20.8010    6.3020 N   0  0  0  0  0  0
   -8.3720  -18.6380    7.2070 C   0  0  0  0  0  0
   -7.1250  -18.4770    6.6570 C   0  0  0  0  0  0
   -6.3950  -17.3900    7.2620 C   0  0  0  0  0  0
   -5.0790  -16.9250    7.0230 C   0  0  0  0  0  0
   -4.3600  -17.5720    6.0460 O   0  0  0  0  0  0
   -3.0080  -17.9300    6.3360 C   0  0  1  0  0  0
   -2.9820  -18.9760    7.4710 C   0  0  0  0  0  0
   -1.6940  -19.0520    8.0680 O   0  0  0  0  0  0
   -1.0830  -20.2300    8.2600 C   0  0  0  0  0  0
   -1.5250  -21.3230    7.9010 O   0  0  0  0  0  0
    0.1150  -19.9800    8.9090 N   0  0  0  0  0  0
    1.1130  -20.9060    9.3120 C   0  0  0  0  0  0
    2.0510  -20.4640   10.2680 C   0  0  0  0  0  0
    3.0850  -21.3160   10.7010 C   0  0  0  0  0  0
    3.1880  -22.6190   10.1800 C   0  0  0  0  0  0
    4.1800  -23.4390   10.5990 F   0  0  0  0  0  0
    2.2620  -23.0670    9.2200 C   0  0  0  0  0  0
    1.2310  -22.2140    8.7810 C   0  0  0  0  0  0
   -2.3030  -18.4390    5.0870 C   0  0  0  0  0  0
   -3.0410  -19.0290    4.0380 C   0  0  0  0  0  0
   -2.3870  -19.4830    2.8770 C   0  0  0  0  0  0
   -0.9900  -19.3650    2.7630 C   0  0  0  0  0  0
   -0.2450  -18.7900    3.8120 C   0  0  0  0  0  0
   -0.9010  -18.3290    4.9710 C   0  0  0  0  0  0
   -4.5470  -15.8450    7.7660 C   0  0  0  0  0  0
   -5.3130  -15.2280    8.7690 C   0  0  0  0  0  0
   -6.6240  -15.6670    9.0180 C   0  0  0  0  0  0
   -7.1590  -16.7270    8.2700 C   0  0  0  0  0  0
   -8.7640  -17.4270    8.3960 S   0  0  0  0  0  0
  -10.9440  -18.5680    7.5290 H   0  0  0  0  0  0
  -11.3210  -20.1360    6.8520 H   0  0  0  0  0  0
   -8.0770  -21.0200    6.0980 H   0  0  0  0  0  0
   -9.7690  -21.4650    6.0760 H   0  0  0  0  0  0
   -6.7970  -19.1300    5.8620 H   0  0  0  0  0  0
   -2.4860  -17.0380    6.6820 H   0  0  0  0  0  0
   -3.2550  -19.9530    7.0700 H   0  0  0  0  0  0
   -3.7190  -18.7080    8.2280 H   0  0  0  0  0  0
    0.3680  -19.0330    9.1550 H   0  0  0  0  0  0
    1.9800  -19.4660   10.6730 H   0  0  0  0  0  0
    3.7990  -20.9690   11.4330 H   0  0  0  0  0  0
    2.3420  -24.0660    8.8190 H   0  0  0  0  0  0
    0.5290  -22.5600    8.0360 H   0  0  0  0  0  0
   -4.1130  -19.1330    4.1240 H   0  0  0  0  0  0
   -2.9580  -19.9230    2.0730 H   0  0  0  0  0  0
   -0.4890  -19.7140    1.8720 H   0  0  0  0  0  0
    0.8280  -18.7030    3.7280 H   0  0  0  0  0  0
   -0.3250  -17.8890    5.7720 H   0  0  0  0  0  0
   -3.5470  -15.4900    7.5630 H   0  0  0  0  0  0
   -4.8940  -14.4180    9.3470 H   0  0  0  0  0  0
   -7.2170  -15.1890    9.7830 H   0  0  0  0  0  0
  1  2  2  0  0  0
  1 33  1  0  0  0
  1 34  1  0  0  0
  2  3  1  0  0  0
  2  4  1  0  0  0
  3 35  1  0  0  0
  3 36  1  0  0  0
  4 32  1  0  0  0
  4  5  2  0  0  0
  5  6  1  0  0  0
  5 37  1  0  0  0
  6 31  2  0  0  0
  6  7  1  0  0  0
  7  8  1  0  0  0
  7 28  2  0  0  0
  8  9  1  0  0  0
  9 10  1  0  0  0
  9 22  1  0  0  0
  9 38  1  0  0  0
 10 11  1  0  0  0
 10 39  1  0  0  0
 10 40  1  0  0  0
 11 12  1  0  0  0
 12 13  2  0  0  0
 12 14  1  0  0  0
 14 15  1  0  0  0
 14 41  1  0  0  0
 15 21  2  0  0  0
 15 16  1  0  0  0
 16 17  2  0  0  0
 16 42  1  0  0  0
 17 18  1  0  0  0
 17 43  1  0  0  0
 18 19  1  0  0  0
 18 20  2  0  0  0
 20 21  1  0  0  0
 20 44  1  0  0  0
 21 45  1  0  0  0
 22 27  2  0  0  0
 22 23  1  0  0  0
 23 24  2  0  0  0
 23 46  1  0  0  0
 24 25  1  0  0  0
 24 47  1  0  0  0
 25 26  2  0  0  0
 25 48  1  0  0  0
 26 27  1  0  0  0
 26 49  1  0  0  0
 27 50  1  0  0  0
 28 29  1  0  0  0
 28 51  1  0  0  0
 29 30  2  0  0  0
 29 52  1  0  0  0
 30 31  1  0  0  0
 30 53  1  0  0  0
 31 32  1  0  0  0
M  CHG  1   1   1
M  END
> <s_m_entry_id>
205

> <s_m_entry_name>
4FU9_chembl_158.1

> <s_pdb_PDB_TITLE>
CRYSTAL STRUCTURE OF THE UROKINASE

> <s_pdb_PDB_format_version>
3.30

> <s_m_Source_Path>
/Users/mmunicoy/Documents/NBD/Projects/JJ/urokinase

> <s_m_Source_File>
4FU9_chembl_158.pdb

> <i_m_Source_File_Index>
1

> <s_pdb_PDB_ID>
4FU9

> <r_pdb_PDB_CRYST1_a>
55.1

> <r_pdb_PDB_CRYST1_b>
52.4

> <r_pdb_PDB_CRYST1_c>
80.25

> <r_pdb_PDB_CRYST1_alpha>
90

> <r_pdb_PDB_CRYST1_beta>
90

> <r_pdb_PDB_CRYST1_gamma>
90

> <s_pdb_PDB_CRYST1_Space_Group>
P 21 21 21

> <i_pdb_PDB_CRYST1_z>
4

> <s_pdb_PDB_CLASSIFICATION>
HYDROLASE/HYDROLASE INHIBITOR

> <s_pdb_PDB_DEPOSITION_DATE>
28-JUN-12

> <r_pdb_PDB_R>
0.15

> <r_pdb_PDB_Rfree>
0.182

> <r_pdb_PDB_RESOLUTION>
1.6

> <s_pdb_PDB_EXPDTA>
X-RAY DIFFRACTION

> <r_pdb_PDB_EXPDTA_TEMPERATURE>
160

> <r_pdb_PDB_EXPDTA_PH>
4.8

> <s_pdb_PDB_REMARK_350_Biomolecule_1_Transform_1_Chains>
A

> <s_pdb_PDB_REMARK_350_Biomolecule_1_Transform_1_Matrix_1>
1.000000 0.000000 0.000000   0.000000;0.000000 1.000000 0.000000   0.000000;0.000000 0.000000 1.000000   0.000000

> <s_m_subgroup_title>
ligands

> <s_m_subgroupid>
ligands1

> <b_m_subgroup_collapsed>
0

$$$$
chembl_161
                    3D
 Schrodinger Suite 2021-4.
 49 52  0  0  1  0            999 V2000
  -10.6420  -19.4310    7.1010 N   0  3  0  0  0  0
   -9.3320  -19.6500    7.0900 C   0  0  0  0  0  0
   -8.9700  -20.8720    6.7010 N   0  0  0  0  0  0
   -8.3830  -18.5810    7.4400 C   0  0  0  0  0  0
   -8.7850  -17.5550    8.3200 C   0  0  0  0  0  0
   -7.9000  -16.5160    8.6490 C   0  0  0  0  0  0
   -6.6040  -16.4840    8.0980 C   0  0  0  0  0  0
   -5.7460  -15.4310    8.4670 C   0  0  0  0  0  0
   -4.4440  -15.3540    7.9390 C   0  0  0  0  0  0
   -3.5170  -14.2330    8.3020 C   0  0  0  0  0  0
   -2.3300  -14.4610    8.5280 O   0  0  0  0  0  0
   -4.0810  -13.0120    8.2580 N   0  0  0  0  0  0
   -3.4820  -11.7360    8.4450 C   0  0  0  0  0  0
   -4.2040  -10.6150    7.9780 C   0  0  0  0  0  0
   -3.6900   -9.3150    8.1450 C   0  0  0  0  0  0
   -2.4590   -9.1210    8.7960 C   0  0  0  0  0  0
   -1.7360  -10.2300    9.2730 C   0  0  0  0  0  0
   -2.2430  -11.5330    9.1010 C   0  0  0  0  0  0
   -4.0030  -16.3620    7.0670 C   0  0  0  0  0  0
   -4.8480  -17.4180    6.6570 C   0  0  0  0  0  0
   -4.2690  -18.4310    5.6600 C   0  0  1  0  0  0
   -3.5590  -17.8370    4.4500 C   0  0  0  0  0  0
   -2.7490  -19.0330    3.9570 C   0  0  0  0  0  0
   -2.4480  -19.8170    5.1130 O   0  0  0  0  0  0
   -3.1710  -19.3230    6.2390 C   0  0  0  0  0  0
   -6.1710  -17.4940    7.1930 C   0  0  0  0  0  0
   -7.0830  -18.5390    6.8810 C   0  0  0  0  0  0
  -11.0010  -18.5300    7.3830 H   0  0  0  0  0  0
  -11.2790  -20.1650    6.8270 H   0  0  0  0  0  0
   -7.9920  -21.1210    6.6640 H   0  0  0  0  0  0
   -9.6730  -21.5490    6.4430 H   0  0  0  0  0  0
   -9.7780  -17.5660    8.7440 H   0  0  0  0  0  0
   -8.2110  -15.7360    9.3290 H   0  0  0  0  0  0
   -6.0850  -14.6750    9.1590 H   0  0  0  0  0  0
   -5.0690  -12.9190    8.0690 H   0  0  0  0  0  0
   -5.1570  -10.7520    7.4880 H   0  0  0  0  0  0
   -4.2420   -8.4650    7.7730 H   0  0  0  0  0  0
   -2.0700   -8.1220    8.9300 H   0  0  0  0  0  0
   -0.7890  -10.0840    9.7720 H   0  0  0  0  0  0
   -1.6830  -12.3790    9.4710 H   0  0  0  0  0  0
   -2.9910  -16.3450    6.6900 H   0  0  0  0  0  0
   -5.0790  -19.0670    5.3050 H   0  0  0  0  0  0
   -2.8760  -17.0560    4.7840 H   0  0  0  0  0  0
   -4.2990  -17.5710    3.6960 H   0  0  0  0  0  0
   -1.8210  -18.6820    3.5070 H   0  0  0  0  0  0
   -3.3550  -19.6220    3.2690 H   0  0  0  0  0  0
   -3.6270  -20.1580    6.7720 H   0  0  0  0  0  0
   -2.5060  -18.7210    6.8600 H   0  0  0  0  0  0
   -6.7630  -19.3140    6.1990 H   0  0  0  0  0  0
  1  2  2  0  0  0
  1 28  1  0  0  0
  1 29  1  0  0  0
  2  3  1  0  0  0
  2  4  1  0  0  0
  3 30  1  0  0  0
  3 31  1  0  0  0
  4 27  2  0  0  0
  4  5  1  0  0  0
  5  6  2  0  0  0
  5 32  1  0  0  0
  6  7  1  0  0  0
  6 33  1  0  0  0
  7 26  2  0  0  0
  7  8  1  0  0  0
  8  9  2  0  0  0
  8 34  1  0  0  0
  9 10  1  0  0  0
  9 19  1  0  0  0
 10 11  2  0  0  0
 10 12  1  0  0  0
 12 13  1  0  0  0
 12 35  1  0  0  0
 13 18  2  0  0  0
 13 14  1  0  0  0
 14 15  2  0  0  0
 14 36  1  0  0  0
 15 16  1  0  0  0
 15 37  1  0  0  0
 16 17  2  0  0  0
 16 38  1  0  0  0
 17 18  1  0  0  0
 17 39  1  0  0  0
 18 40  1  0  0  0
 19 20  2  0  0  0
 19 41  1  0  0  0
 20 21  1  0  0  0
 20 26  1  0  0  0
 21 25  1  0  0  0
 21 22  1  0  0  0
 21 42  1  0  0  0
 22 23  1  0  0  0
 22 43  1  0  0  0
 22 44  1  0  0  0
 23 24  1  0  0  0
 23 45  1  0  0  0
 23 46  1  0  0  0
 24 25  1  0  0  0
 25 47  1  0  0  0
 25 48  1  0  0  0
 26 27  1  0  0  0
 27 49  1  0  0  0
M  CHG  1   1   1
M  END
> <s_m_entry_id>
206

> <s_m_entry_name>
4FU9_chembl_161.1

> <s_pdb_PDB_TITLE>
CRYSTAL STRUCTURE OF THE UROKINASE

> <s_pdb_PDB_format_version>
3.30

> <s_m_Source_Path>
/Users/mmunicoy/Documents/NBD/Projects/JJ/urokinase

> <s_m_Source_File>
4FU9_chembl_161.pdb

> <i_m_Source_File_Index>
1

> <s_pdb_PDB_ID>
4FU9

> <r_pdb_PDB_CRYST1_a>
55.1

> <r_pdb_PDB_CRYST1_b>
52.4

> <r_pdb_PDB_CRYST1_c>
80.25

> <r_pdb_PDB_CRYST1_alpha>
90

> <r_pdb_PDB_CRYST1_beta>
90

> <r_pdb_PDB_CRYST1_gamma>
90

> <s_pdb_PDB_CRYST1_Space_Group>
P 21 21 21

> <i_pdb_PDB_CRYST1_z>
4

> <s_pdb_PDB_CLASSIFICATION>
HYDROLASE/HYDROLASE INHIBITOR

> <s_pdb_PDB_DEPOSITION_DATE>
28-JUN-12

> <r_pdb_PDB_R>
0.15

> <r_pdb_PDB_Rfree>
0.182

> <r_pdb_PDB_RESOLUTION>
1.6

> <s_pdb_PDB_EXPDTA>
X-RAY DIFFRACTION

> <r_pdb_PDB_EXPDTA_TEMPERATURE>
160

> <r_pdb_PDB_EXPDTA_PH>
4.8

> <s_pdb_PDB_REMARK_350_Biomolecule_1_Transform_1_Chains>
A

> <s_pdb_PDB_REMARK_350_Biomolecule_1_Transform_1_Matrix_1>
1.000000 0.000000 0.000000   0.000000;0.000000 1.000000 0.000000   0.000000;0.000000 0.000000 1.000000   0.000000

> <s_m_subgroup_title>
ligands

> <s_m_subgroupid>
ligands1

> <b_m_subgroup_collapsed>
0

$$$$
chembl_162
                    3D
 Schrodinger Suite 2021-4.
 41 44  0  0  1  0            999 V2000
   -9.0080  -20.9200    6.7010 N   0  3  0  0  0  0
   -9.3450  -19.6880    7.0830 C   0  0  0  0  0  0
  -10.6420  -19.4310    7.1010 N   0  0  0  0  0  0
   -8.3870  -18.6310    7.4090 C   0  0  0  0  0  0
   -8.7330  -17.6210    8.3350 C   0  0  0  0  0  0
   -7.8350  -16.5750    8.6200 C   0  0  0  0  0  0
   -6.5810  -16.5310    7.9800 C   0  0  0  0  0  0
   -5.6760  -15.4890    8.2630 C   0  0  0  0  0  0
   -4.4230  -15.4320    7.6110 C   0  0  0  0  0  0
   -3.4610  -14.3180    7.9010 C   0  0  0  0  0  0
   -2.2500  -14.5260    7.9240 O   0  0  0  0  0  0
   -4.0410  -13.1120    8.0340 N   0  0  0  0  0  0
   -3.4480  -11.8660    8.3690 C   0  0  0  0  0  0
   -4.1680  -10.6920    8.0250 C   0  0  0  0  0  0
   -3.6870   -9.4120    8.3820 C   0  0  0  0  0  0
   -2.4840   -9.3410    9.1010 C   0  0  0  0  0  0
   -1.7780  -10.4760    9.4400 C   0  0  0  0  0  0
   -2.2290  -11.7600    9.0900 C   0  0  0  0  0  0
   -0.6740  -10.1290   10.1490 O   0  0  0  0  0  0
   -0.6980   -8.7280   10.2390 C   0  0  0  0  0  0
   -1.8420   -8.2450    9.5810 O   0  0  0  0  0  0
   -4.0710  -16.4520    6.7010 C   0  0  0  0  0  0
   -4.9730  -17.4950    6.4120 C   0  0  0  0  0  0
   -6.2290  -17.5370    7.0480 C   0  0  0  0  0  0
   -7.1360  -18.5770    6.7600 C   0  0  0  0  0  0
   -8.0350  -21.1880    6.6630 H   0  0  0  0  0  0
   -9.7260  -21.5850    6.4500 H   0  0  0  0  0  0
  -10.9720  -18.5180    7.3800 H   0  0  0  0  0  0
  -11.3030  -20.1470    6.8360 H   0  0  0  0  0  0
   -9.6930  -17.6480    8.8300 H   0  0  0  0  0  0
   -8.1080  -15.8070    9.3290 H   0  0  0  0  0  0
   -5.9380  -14.7280    8.9830 H   0  0  0  0  0  0
   -5.0360  -13.0110    7.8900 H   0  0  0  0  0  0
   -5.0990  -10.7680    7.4830 H   0  0  0  0  0  0
   -4.2410   -8.5290    8.1010 H   0  0  0  0  0  0
   -1.6780  -12.6500    9.3540 H   0  0  0  0  0  0
    0.1940   -8.3180    9.7640 H   0  0  0  0  0  0
   -0.7300   -8.4320   11.2880 H   0  0  0  0  0  0
   -3.1040  -16.4370    6.2210 H   0  0  0  0  0  0
   -4.7010  -18.2630    5.7030 H   0  0  0  0  0  0
   -6.8680  -19.3340    6.0390 H   0  0  0  0  0  0
  1  2  2  0  0  0
  1 26  1  0  0  0
  1 27  1  0  0  0
  2  3  1  0  0  0
  2  4  1  0  0  0
  3 28  1  0  0  0
  3 29  1  0  0  0
  4 25  2  0  0  0
  4  5  1  0  0  0
  5  6  2  0  0  0
  5 30  1  0  0  0
  6  7  1  0  0  0
  6 31  1  0  0  0
  7 24  2  0  0  0
  7  8  1  0  0  0
  8  9  2  0  0  0
  8 32  1  0  0  0
  9 10  1  0  0  0
  9 22  1  0  0  0
 10 11  2  0  0  0
 10 12  1  0  0  0
 12 13  1  0  0  0
 12 33  1  0  0  0
 13 18  2  0  0  0
 13 14  1  0  0  0
 14 15  2  0  0  0
 14 34  1  0  0  0
 15 16  1  0  0  0
 15 35  1  0  0  0
 16 21  1  0  0  0
 16 17  2  0  0  0
 17 18  1  0  0  0
 17 19  1  0  0  0
 18 36  1  0  0  0
 19 20  1  0  0  0
 20 21  1  0  0  0
 20 37  1  0  0  0
 20 38  1  0  0  0
 22 23  2  0  0  0
 22 39  1  0  0  0
 23 24  1  0  0  0
 23 40  1  0  0  0
 24 25  1  0  0  0
 25 41  1  0  0  0
M  CHG  1   1   1
M  END
> <s_m_entry_id>
207

> <s_m_entry_name>
4FU9_chembl_162.1

> <s_pdb_PDB_TITLE>
CRYSTAL STRUCTURE OF THE UROKINASE

> <s_pdb_PDB_format_version>
3.30

> <s_m_Source_Path>
/Users/mmunicoy/Documents/NBD/Projects/JJ/urokinase

> <s_m_Source_File>
4FU9_chembl_162.pdb

> <i_m_Source_File_Index>
1

> <s_pdb_PDB_ID>
4FU9

> <r_pdb_PDB_CRYST1_a>
55.1

> <r_pdb_PDB_CRYST1_b>
52.4

> <r_pdb_PDB_CRYST1_c>
80.25

> <r_pdb_PDB_CRYST1_alpha>
90

> <r_pdb_PDB_CRYST1_beta>
90

> <r_pdb_PDB_CRYST1_gamma>
90

> <s_pdb_PDB_CRYST1_Space_Group>
P 21 21 21

> <i_pdb_PDB_CRYST1_z>
4

> <s_pdb_PDB_CLASSIFICATION>
HYDROLASE/HYDROLASE INHIBITOR

> <s_pdb_PDB_DEPOSITION_DATE>
28-JUN-12

> <r_pdb_PDB_R>
0.15

> <r_pdb_PDB_Rfree>
0.182

> <r_pdb_PDB_RESOLUTION>
1.6

> <s_pdb_PDB_EXPDTA>
X-RAY DIFFRACTION

> <r_pdb_PDB_EXPDTA_TEMPERATURE>
160

> <r_pdb_PDB_EXPDTA_PH>
4.8

> <s_pdb_PDB_REMARK_350_Biomolecule_1_Transform_1_Chains>
A

> <s_pdb_PDB_REMARK_350_Biomolecule_1_Transform_1_Matrix_1>
1.000000 0.000000 0.000000   0.000000;0.000000 1.000000 0.000000   0.000000;0.000000 0.000000 1.000000   0.000000

> <s_m_subgroup_title>
ligands

> <s_m_subgroupid>
ligands1

> <b_m_subgroup_collapsed>
0

$$$$
chembl_163
                    3D
 Schrodinger Suite 2021-4.
 34 36  0  0  1  0            999 V2000
   -1.0220  -21.0310    7.9010 N   0  0  0  0  0  0
   -1.5230  -20.2210    8.5540 C   0  0  0  0  0  0
   -2.1530  -19.2020    9.3750 C   0  0  0  0  0  0
   -1.8390  -19.2080   10.7490 C   0  0  0  0  0  0
   -2.3990  -18.2540   11.6100 C   0  0  0  0  0  0
   -3.2720  -17.2810   11.1010 C   0  0  0  0  0  0
   -3.5860  -17.2700    9.7320 C   0  0  0  0  0  0
   -3.0510  -18.2330    8.8410 C   0  0  0  0  0  0
   -3.4240  -18.1940    7.3450 C   0  0  0  0  0  0
   -4.7890  -18.5200    7.0490 O   0  0  0  0  0  0
   -5.7770  -17.5750    7.2480 C   0  0  0  0  0  0
   -5.5080  -16.1870    7.3410 C   0  0  0  0  0  0
   -6.5180  -15.2750    7.6820 C   0  0  0  0  0  0
   -7.8330  -15.7150    7.8900 C   0  0  0  0  0  0
   -8.1390  -17.0720    7.6920 C   0  0  0  0  0  0
   -9.4660  -17.5130    7.8040 C   0  0  0  0  0  0
   -9.7900  -18.8470    7.4960 C   0  0  0  0  0  0
   -8.7660  -19.7200    7.1010 C   0  0  0  0  0  0
   -9.0420  -21.0260    6.7010 N   0  0  0  0  0  0
   -7.4820  -19.2830    7.1010 N   0  0  0  0  0  0
   -7.1240  -18.0000    7.3520 C   0  0  0  0  0  0
   -1.1630  -19.9510   11.1450 H   0  0  0  0  0  0
   -2.1590  -18.2690   12.6630 H   0  0  0  0  0  0
   -3.7000  -16.5410   11.7610 H   0  0  0  0  0  0
   -4.2490  -16.5160    9.3360 H   0  0  0  0  0  0
   -2.7650  -18.8630    6.7910 H   0  0  0  0  0  0
   -3.1940  -17.2070    6.9420 H   0  0  0  0  0  0
   -4.5130  -15.8160    7.1490 H   0  0  0  0  0  0
   -6.2840  -14.2250    7.7860 H   0  0  0  0  0  0
   -8.5950  -15.0140    8.1970 H   0  0  0  0  0  0
  -10.2370  -16.8290    8.1270 H   0  0  0  0  0  0
  -10.8140  -19.1830    7.5660 H   0  0  0  0  0  0
   -8.2890  -21.6380    6.4200 H   0  0  0  0  0  0
   -9.9950  -21.3600    6.6920 H   0  0  0  0  0  0
  1  2  3  0  0  0
  2  3  1  0  0  0
  3  8  2  0  0  0
  3  4  1  0  0  0
  4  5  2  0  0  0
  4 22  1  0  0  0
  5  6  1  0  0  0
  5 23  1  0  0  0
  6  7  2  0  0  0
  6 24  1  0  0  0
  7  8  1  0  0  0
  7 25  1  0  0  0
  8  9  1  0  0  0
  9 10  1  0  0  0
  9 26  1  0  0  0
  9 27  1  0  0  0
 10 11  1  0  0  0
 11 21  2  0  0  0
 11 12  1  0  0  0
 12 13  2  0  0  0
 12 28  1  0  0  0
 13 14  1  0  0  0
 13 29  1  0  0  0
 14 15  2  0  0  0
 14 30  1  0  0  0
 15 21  1  0  0  0
 15 16  1  0  0  0
 16 17  2  0  0  0
 16 31  1  0  0  0
 17 18  1  0  0  0
 17 32  1  0  0  0
 18 19  1  0  0  0
 18 20  2  0  0  0
 19 33  1  0  0  0
 19 34  1  0  0  0
 20 21  1  0  0  0
M  END
> <s_m_entry_id>
208

> <s_m_entry_name>
4FU9_chembl_163.1

> <s_pdb_PDB_TITLE>
CRYSTAL STRUCTURE OF THE UROKINASE

> <s_pdb_PDB_format_version>
3.30

> <s_m_Source_Path>
/Users/mmunicoy/Documents/NBD/Projects/JJ/urokinase

> <s_m_Source_File>
4FU9_chembl_163.pdb

> <i_m_Source_File_Index>
1

> <s_pdb_PDB_ID>
4FU9

> <r_pdb_PDB_CRYST1_a>
55.1

> <r_pdb_PDB_CRYST1_b>
52.4

> <r_pdb_PDB_CRYST1_c>
80.25

> <r_pdb_PDB_CRYST1_alpha>
90

> <r_pdb_PDB_CRYST1_beta>
90

> <r_pdb_PDB_CRYST1_gamma>
90

> <s_pdb_PDB_CRYST1_Space_Group>
P 21 21 21

> <i_pdb_PDB_CRYST1_z>
4

> <s_pdb_PDB_CLASSIFICATION>
HYDROLASE/HYDROLASE INHIBITOR

> <s_pdb_PDB_DEPOSITION_DATE>
28-JUN-12

> <r_pdb_PDB_R>
0.15

> <r_pdb_PDB_Rfree>
0.182

> <r_pdb_PDB_RESOLUTION>
1.6

> <s_pdb_PDB_EXPDTA>
X-RAY DIFFRACTION

> <r_pdb_PDB_EXPDTA_TEMPERATURE>
160

> <r_pdb_PDB_EXPDTA_PH>
4.8

> <s_pdb_PDB_REMARK_350_Biomolecule_1_Transform_1_Chains>
A

> <s_pdb_PDB_REMARK_350_Biomolecule_1_Transform_1_Matrix_1>
1.000000 0.000000 0.000000   0.000000;0.000000 1.000000 0.000000   0.000000;0.000000 0.000000 1.000000   0.000000

> <s_m_subgroup_title>
ligands

> <s_m_subgroupid>
ligands1

> <b_m_subgroup_collapsed>
0

$$$$
chembl_164
                    3D
 Schrodinger Suite 2021-4.
 63 67  0  0  1  0            999 V2000
    0.8260  -10.3080    7.5980 C   0  0  0  0  0  0
    1.1190  -10.2640    9.1120 C   0  0  0  0  0  0
    1.7250  -11.5970    9.5870 C   0  0  0  0  0  0
   -0.0920   -9.7960    9.9840 C   0  0  2  0  0  0
   -1.4420  -10.3150    9.4490 C   0  0  0  0  0  0
   -1.7290  -11.6980    9.4940 C   0  0  0  0  0  0
   -2.9090  -12.2190    8.9220 C   0  0  0  0  0  0
   -3.2000  -13.6880    8.9800 C   0  0  2  0  0  0
   -2.1360  -14.7220    8.6810 C   0  0  0  0  0  0
   -3.2740  -14.5110    7.7120 C   0  0  1  0  0  0
   -4.2950  -15.5860    7.4880 C   0  0  0  0  0  0
   -4.0040  -16.6230    6.5760 C   0  0  0  0  0  0
   -4.9480  -17.6310    6.3070 C   0  0  0  0  0  0
   -6.1920  -17.6210    6.9650 C   0  0  0  0  0  0
   -7.1360  -18.6310    6.7000 C   0  0  0  0  0  0
   -8.3710  -18.6520    7.3760 C   0  0  0  0  0  0
   -9.3490  -19.7000    7.0750 C   0  0  0  0  0  0
   -9.0320  -20.9400    6.7010 N   0  3  0  0  0  0
  -10.6420  -19.4310    7.1010 N   0  0  0  0  0  0
   -8.6710  -17.6250    8.3010 C   0  0  0  0  0  0
   -7.7400  -16.5970    8.5520 C   0  0  0  0  0  0
   -6.4940  -16.5950    7.8910 C   0  0  0  0  0  0
   -5.5480  -15.5780    8.1430 C   0  0  0  0  0  0
   -3.8270  -11.3370    8.3150 C   0  0  0  0  0  0
   -3.5880   -9.9500    8.3230 C   0  0  0  0  0  0
   -2.4070   -9.4400    8.8980 C   0  0  0  0  0  0
   -2.1770   -7.9480    8.9600 C   0  0  0  0  0  0
   -1.3240   -7.6010   10.1830 C   0  0  0  0  0  0
   -0.0230   -8.3060   10.1340 N   0  3  1  0  0  0
    0.8730   -7.8770   11.2360 C   0  0  0  0  0  0
    0.3990   -9.3570    7.2820 H   0  0  0  0  0  0
    1.7530  -10.4880    7.0530 H   0  0  0  0  0  0
    0.1200  -11.1110    7.3870 H   0  0  0  0  0  0
    1.8970   -9.5130    9.2470 H   0  0  0  0  0  0
    1.9240  -11.5450   10.6580 H   0  0  0  0  0  0
    1.0240  -12.4070    9.3880 H   0  0  0  0  0  0
    2.6570  -11.7840    9.0540 H   0  0  0  0  0  0
    0.0450  -10.2250   10.9770 H   0  0  0  0  0  0
   -1.0400  -12.3780    9.9730 H   0  0  0  0  0  0
   -3.9110  -13.9800    9.7520 H   0  0  0  0  0  0
   -2.5440  -15.5580    9.2480 H   0  0  0  0  0  0
   -1.3920  -14.0740    8.2170 H   0  0  0  0  0  0
   -2.9960  -13.9650    6.8100 H   0  0  0  0  0  0
   -3.0480  -16.6500    6.0760 H   0  0  0  0  0  0
   -4.7170  -18.4110    5.5960 H   0  0  0  0  0  0
   -6.9160  -19.3990    5.9740 H   0  0  0  0  0  0
   -9.7610  -21.6120    6.5090 H   0  0  0  0  0  0
   -8.0620  -21.2070    6.6090 H   0  0  0  0  0  0
  -11.3130  -20.1560    6.8930 H   0  0  0  0  0  0
  -10.9590  -18.5000    7.3290 H   0  0  0  0  0  0
   -9.6180  -17.6260    8.8200 H   0  0  0  0  0  0
   -7.9800  -15.8090    9.2510 H   0  0  0  0  0  0
   -5.7870  -14.7900    8.8410 H   0  0  0  0  0  0
   -4.7180  -11.7250    7.8420 H   0  0  0  0  0  0
   -4.3110   -9.2750    7.8880 H   0  0  0  0  0  0
   -3.1370   -7.4360    9.0300 H   0  0  0  0  0  0
   -1.6640   -7.6220    8.0560 H   0  0  0  0  0  0
   -1.8580   -7.8860   11.0900 H   0  0  0  0  0  0
   -1.1540   -6.5250   10.2130 H   0  0  0  0  0  0
    0.4230   -7.9770    9.2900 H   0  0  0  0  0  0
    0.8820   -6.7890   11.2950 H   0  0  0  0  0  0
    0.5130   -8.2890   12.1790 H   0  0  0  0  0  0
    1.8840   -8.2380   11.0440 H   0  0  0  0  0  0
  1  2  1  0  0  0
  1 31  1  0  0  0
  1 32  1  0  0  0
  1 33  1  0  0  0
  2  3  1  0  0  0
  2  4  1  0  0  0
  2 34  1  0  0  0
  3 35  1  0  0  0
  3 36  1  0  0  0
  3 37  1  0  0  0
  4 29  1  0  0  0
  4  5  1  0  0  0
  4 38  1  0  0  0
  5 26  2  0  0  0
  5  6  1  0  0  0
  6  7  2  0  0  0
  6 39  1  0  0  0
  7  8  1  0  0  0
  7 24  1  0  0  0
  8 10  1  0  0  0
  8  9  1  0  0  0
  8 40  1  0  0  0
  9 10  1  0  0  0
  9 41  1  0  0  0
  9 42  1  0  0  0
 10 11  1  0  0  0
 10 43  1  0  0  0
 11 23  2  0  0  0
 11 12  1  0  0  0
 12 13  2  0  0  0
 12 44  1  0  0  0
 13 14  1  0  0  0
 13 45  1  0  0  0
 14 22  2  0  0  0
 14 15  1  0  0  0
 15 16  2  0  0  0
 15 46  1  0  0  0
 16 17  1  0  0  0
 16 20  1  0  0  0
 17 18  2  0  0  0
 17 19  1  0  0  0
 18 47  1  0  0  0
 18 48  1  0  0  0
 19 49  1  0  0  0
 19 50  1  0  0  0
 20 21  2  0  0  0
 20 51  1  0  0  0
 21 22  1  0  0  0
 21 52  1  0  0  0
 22 23  1  0  0  0
 23 53  1  0  0  0
 24 25  2  0  0  0
 24 54  1  0  0  0
 25 26  1  0  0  0
 25 55  1  0  0  0
 26 27  1  0  0  0
 27 28  1  0  0  0
 27 56  1  0  0  0
 27 57  1  0  0  0
 28 29  1  0  0  0
 28 58  1  0  0  0
 28 59  1  0  0  0
 29 30  1  0  0  0
 29 60  1  0  0  0
 30 61  1  0  0  0
 30 62  1  0  0  0
 30 63  1  0  0  0
M  CHG  2  18   1  29   1
M  END
> <s_m_entry_id>
209

> <s_m_entry_name>
4FU9_chembl_164.1

> <s_pdb_PDB_TITLE>
CRYSTAL STRUCTURE OF THE UROKINASE

> <s_pdb_PDB_format_version>
3.30

> <s_m_Source_Path>
/Users/mmunicoy/Documents/NBD/Projects/JJ/urokinase

> <s_m_Source_File>
4FU9_chembl_164.pdb

> <i_m_Source_File_Index>
1

> <s_pdb_PDB_ID>
4FU9

> <r_pdb_PDB_CRYST1_a>
55.1

> <r_pdb_PDB_CRYST1_b>
52.4

> <r_pdb_PDB_CRYST1_c>
80.25

> <r_pdb_PDB_CRYST1_alpha>
90

> <r_pdb_PDB_CRYST1_beta>
90

> <r_pdb_PDB_CRYST1_gamma>
90

> <s_pdb_PDB_CRYST1_Space_Group>
P 21 21 21

> <i_pdb_PDB_CRYST1_z>
4

> <s_pdb_PDB_CLASSIFICATION>
HYDROLASE/HYDROLASE INHIBITOR

> <s_pdb_PDB_DEPOSITION_DATE>
28-JUN-12

> <r_pdb_PDB_R>
0.15

> <r_pdb_PDB_Rfree>
0.182

> <r_pdb_PDB_RESOLUTION>
1.6

> <s_pdb_PDB_EXPDTA>
X-RAY DIFFRACTION

> <r_pdb_PDB_EXPDTA_TEMPERATURE>
160

> <r_pdb_PDB_EXPDTA_PH>
4.8

> <s_pdb_PDB_REMARK_350_Biomolecule_1_Transform_1_Chains>
A

> <s_pdb_PDB_REMARK_350_Biomolecule_1_Transform_1_Matrix_1>
1.000000 0.000000 0.000000   0.000000;0.000000 1.000000 0.000000   0.000000;0.000000 0.000000 1.000000   0.000000

> <s_m_subgroup_title>
ligands

> <s_m_subgroupid>
ligands1

> <b_m_subgroup_collapsed>
0

$$$$
chembl_165
                    3D
 Schrodinger Suite 2021-4.
 38 40  0  0  1  0            999 V2000
  -10.6420  -19.4310    7.1010 N   0  3  0  0  0  0
   -9.3330  -19.6390    7.1010 C   0  0  0  0  0  0
   -8.9460  -20.8510    6.7010 N   0  0  0  0  0  0
   -8.4180  -18.5690    7.5210 C   0  0  0  0  0  0
   -8.9260  -17.4780    8.2670 C   0  0  0  0  0  0
   -8.0740  -16.4500    8.7010 C   0  0  0  0  0  0
   -6.6980  -16.5170    8.4280 C   0  0  0  0  0  0
   -5.8400  -15.5340    8.9500 C   0  0  0  0  0  0
   -4.4500  -15.6240    8.7590 C   0  0  0  0  0  0
   -3.6000  -14.6170    9.4090 C   0  0  0  0  0  0
   -2.5280  -14.8200   10.2020 C   0  0  0  0  0  0
   -1.7140  -13.4230   10.8130 Cl  0  0  0  0  0  0
   -2.0330  -16.1360   10.6560 C   0  0  0  0  0  0
   -2.9150  -17.1620   11.0700 C   0  0  0  0  0  0
   -2.4150  -18.4050   11.5010 C   0  0  0  0  0  0
   -1.0280  -18.6310   11.5410 C   0  0  0  0  0  0
   -0.1400  -17.6170   11.1400 C   0  0  0  0  0  0
   -0.6420  -16.3780   10.6960 C   0  0  0  0  0  0
   -3.9250  -16.6920    7.9970 C   0  0  0  0  0  0
   -4.7840  -17.6690    7.4510 C   0  0  0  0  0  0
   -6.1740  -17.5980    7.6800 C   0  0  0  0  0  0
   -7.0390  -18.6080    7.2070 C   0  0  0  0  0  0
  -11.0110  -18.5370    7.3910 H   0  0  0  0  0  0
  -11.2700  -20.1670    6.8110 H   0  0  0  0  0  0
   -7.9640  -21.0840    6.6740 H   0  0  0  0  0  0
   -9.6360  -21.5350    6.4250 H   0  0  0  0  0  0
   -9.9780  -17.4310    8.5080 H   0  0  0  0  0  0
   -8.4770  -15.6080    9.2440 H   0  0  0  0  0  0
   -6.2460  -14.7000    9.5030 H   0  0  0  0  0  0
   -3.8070  -13.5660    9.2730 H   0  0  0  0  0  0
   -3.9820  -16.9940   11.0580 H   0  0  0  0  0  0
   -3.0970  -19.1870   11.8010 H   0  0  0  0  0  0
   -0.6450  -19.5820   11.8800 H   0  0  0  0  0  0
    0.9250  -17.7880   11.1720 H   0  0  0  0  0  0
    0.0500  -15.6090   10.3850 H   0  0  0  0  0  0
   -2.8610  -16.7640    7.8300 H   0  0  0  0  0  0
   -4.3770  -18.4740    6.8570 H   0  0  0  0  0  0
   -6.6450  -19.4120    6.6030 H   0  0  0  0  0  0
  1  2  2  0  0  0
  1 23  1  0  0  0
  1 24  1  0  0  0
  2  3  1  0  0  0
  2  4  1  0  0  0
  3 25  1  0  0  0
  3 26  1  0  0  0
  4 22  2  0  0  0
  4  5  1  0  0  0
  5  6  2  0  0  0
  5 27  1  0  0  0
  6  7  1  0  0  0
  6 28  1  0  0  0
  7 21  2  0  0  0
  7  8  1  0  0  0
  8  9  2  0  0  0
  8 29  1  0  0  0
  9 10  1  0  0  0
  9 19  1  0  0  0
 10 11  2  0  0  0
 10 30  1  0  0  0
 11 12  1  0  0  0
 11 13  1  0  0  0
 13 18  2  0  0  0
 13 14  1  0  0  0
 14 15  2  0  0  0
 14 31  1  0  0  0
 15 16  1  0  0  0
 15 32  1  0  0  0
 16 17  2  0  0  0
 16 33  1  0  0  0
 17 18  1  0  0  0
 17 34  1  0  0  0
 18 35  1  0  0  0
 19 20  2  0  0  0
 19 36  1  0  0  0
 20 21  1  0  0  0
 20 37  1  0  0  0
 21 22  1  0  0  0
 22 38  1  0  0  0
M  CHG  1   1   1
M  END
> <s_m_entry_id>
210

> <s_m_entry_name>
4FU9_chembl_165.1

> <s_pdb_PDB_TITLE>
CRYSTAL STRUCTURE OF THE UROKINASE

> <s_pdb_PDB_format_version>
3.30

> <s_m_Source_Path>
/Users/mmunicoy/Documents/NBD/Projects/JJ/urokinase

> <s_m_Source_File>
4FU9_chembl_165.pdb

> <i_m_Source_File_Index>
1

> <s_pdb_PDB_ID>
4FU9

> <r_pdb_PDB_CRYST1_a>
55.1

> <r_pdb_PDB_CRYST1_b>
52.4

> <r_pdb_PDB_CRYST1_c>
80.25

> <r_pdb_PDB_CRYST1_alpha>
90

> <r_pdb_PDB_CRYST1_beta>
90

> <r_pdb_PDB_CRYST1_gamma>
90

> <s_pdb_PDB_CRYST1_Space_Group>
P 21 21 21

> <i_pdb_PDB_CRYST1_z>
4

> <s_pdb_PDB_CLASSIFICATION>
HYDROLASE/HYDROLASE INHIBITOR

> <s_pdb_PDB_DEPOSITION_DATE>
28-JUN-12

> <r_pdb_PDB_R>
0.15

> <r_pdb_PDB_Rfree>
0.182

> <r_pdb_PDB_RESOLUTION>
1.6

> <s_pdb_PDB_EXPDTA>
X-RAY DIFFRACTION

> <r_pdb_PDB_EXPDTA_TEMPERATURE>
160

> <r_pdb_PDB_EXPDTA_PH>
4.8

> <s_pdb_PDB_REMARK_350_Biomolecule_1_Transform_1_Chains>
A

> <s_pdb_PDB_REMARK_350_Biomolecule_1_Transform_1_Matrix_1>
1.000000 0.000000 0.000000   0.000000;0.000000 1.000000 0.000000   0.000000;0.000000 0.000000 1.000000   0.000000

> <s_m_subgroup_title>
ligands

> <s_m_subgroupid>
ligands1

> <b_m_subgroup_collapsed>
0

$$$$
chembl_166
                    3D
 Schrodinger Suite 2021-4.
 21 22  0  0  1  0            999 V2000
   -3.7180  -15.2790    7.1960 N   0  0  0  0  0  0
   -4.8200  -16.1310    7.1730 C   0  0  0  0  0  0
   -4.7980  -17.2890    6.3730 C   0  0  0  0  0  0
   -5.9120  -18.1490    6.3480 C   0  0  0  0  0  0
   -7.0600  -17.8580    7.1180 C   0  0  0  0  0  0
   -8.1960  -18.7030    7.1010 C   0  0  0  0  0  0
   -8.2430  -19.8310    6.3410 O   0  0  0  0  0  0
   -9.3220  -18.3940    7.8850 C   0  0  0  0  0  0
   -9.3250  -17.2470    8.6960 C   0  0  0  0  0  0
   -8.2100  -16.3880    8.7070 C   0  0  0  0  0  0
   -7.0760  -16.6910    7.9250 C   0  0  0  0  0  0
   -5.9570  -15.8340    7.9500 C   0  0  0  0  0  0
   -2.9030  -15.4920    6.6380 H   0  0  0  0  0  0
   -3.7340  -14.4480    7.7700 H   0  0  0  0  0  0
   -3.9270  -17.5180    5.7770 H   0  0  0  0  0  0
   -5.8930  -19.0400    5.7370 H   0  0  0  0  0  0
   -9.0900  -20.2650    6.4640 H   0  0  0  0  0  0
  -10.1870  -19.0390    7.8650 H   0  0  0  0  0  0
  -10.1840  -17.0230    9.3110 H   0  0  0  0  0  0
   -8.2210  -15.4960    9.3150 H   0  0  0  0  0  0
   -5.9720  -14.9480    8.5680 H   0  0  0  0  0  0
  1  2  1  0  0  0
  1 13  1  0  0  0
  1 14  1  0  0  0
  2 12  2  0  0  0
  2  3  1  0  0  0
  3  4  2  0  0  0
  3 15  1  0  0  0
  4  5  1  0  0  0
  4 16  1  0  0  0
  5 11  2  0  0  0
  5  6  1  0  0  0
  6  7  1  0  0  0
  6  8  2  0  0  0
  7 17  1  0  0  0
  8  9  1  0  0  0
  8 18  1  0  0  0
  9 10  2  0  0  0
  9 19  1  0  0  0
 10 11  1  0  0  0
 10 20  1  0  0  0
 11 12  1  0  0  0
 12 21  1  0  0  0
M  END
> <s_m_entry_id>
211

> <s_m_entry_name>
4FU9_chembl_166.1

> <s_pdb_PDB_TITLE>
CRYSTAL STRUCTURE OF THE UROKINASE

> <s_pdb_PDB_format_version>
3.30

> <s_m_Source_Path>
/Users/mmunicoy/Documents/NBD/Projects/JJ/urokinase

> <s_m_Source_File>
4FU9_chembl_166.pdb

> <i_m_Source_File_Index>
1

> <s_pdb_PDB_ID>
4FU9

> <r_pdb_PDB_CRYST1_a>
55.1

> <r_pdb_PDB_CRYST1_b>
52.4

> <r_pdb_PDB_CRYST1_c>
80.25

> <r_pdb_PDB_CRYST1_alpha>
90

> <r_pdb_PDB_CRYST1_beta>
90

> <r_pdb_PDB_CRYST1_gamma>
90

> <s_pdb_PDB_CRYST1_Space_Group>
P 21 21 21

> <i_pdb_PDB_CRYST1_z>
4

> <s_pdb_PDB_CLASSIFICATION>
HYDROLASE/HYDROLASE INHIBITOR

> <s_pdb_PDB_DEPOSITION_DATE>
28-JUN-12

> <r_pdb_PDB_R>
0.15

> <r_pdb_PDB_Rfree>
0.182

> <r_pdb_PDB_RESOLUTION>
1.6

> <s_pdb_PDB_EXPDTA>
X-RAY DIFFRACTION

> <r_pdb_PDB_EXPDTA_TEMPERATURE>
160

> <r_pdb_PDB_EXPDTA_PH>
4.8

> <s_pdb_PDB_REMARK_350_Biomolecule_1_Transform_1_Chains>
A

> <s_pdb_PDB_REMARK_350_Biomolecule_1_Transform_1_Matrix_1>
1.000000 0.000000 0.000000   0.000000;0.000000 1.000000 0.000000   0.000000;0.000000 0.000000 1.000000   0.000000

> <s_m_subgroup_title>
ligands

> <s_m_subgroupid>
ligands1

> <b_m_subgroup_collapsed>
0

$$$$
chembl_167
                    3D
 Schrodinger Suite 2021-4.
 55 58  0  0  1  0            999 V2000
   -0.2200   -5.2060   12.5070 C   0  0  0  0  0  0
    0.1470   -6.2910   11.8110 C   0  0  0  0  0  0
   -0.3170   -6.5680   10.4000 C   0  0  0  0  0  0
   -0.9470   -7.9040   10.3010 N   0  3  2  0  0  0
    0.0510   -8.9940   10.1700 C   0  0  0  0  0  0
   -0.6270  -10.3590   10.3180 C   0  0  0  0  0  0
   -1.8410  -10.4940    9.4180 C   0  0  0  0  0  0
   -2.3300  -11.7760    9.0960 C   0  0  0  0  0  0
   -3.4920  -11.9150    8.3010 C   0  0  0  0  0  0
   -4.0630  -13.1740    7.9910 N   0  0  0  0  0  0
   -3.4640  -14.3740    7.9010 C   0  0  0  0  0  0
   -2.2510  -14.5680    7.9620 O   0  0  0  0  0  0
   -4.4130  -15.4960    7.6130 C   0  0  0  0  0  0
   -4.0600  -16.5150    6.7010 C   0  0  0  0  0  0
   -4.9650  -17.5560    6.4130 C   0  0  0  0  0  0
   -6.2210  -17.5950    7.0500 C   0  0  0  0  0  0
   -7.1340  -18.6280    6.7620 C   0  0  0  0  0  0
   -8.3840  -18.6720    7.4110 C   0  0  0  0  0  0
   -9.3530  -19.7150    7.0850 C   0  0  0  0  0  0
   -9.0370  -20.9520    6.7010 N   0  3  0  0  0  0
  -10.6420  -19.4310    7.1010 N   0  0  0  0  0  0
   -8.7260  -17.6620    8.3400 C   0  0  0  0  0  0
   -7.8220  -16.6240    8.6250 C   0  0  0  0  0  0
   -6.5690  -16.5900    7.9830 C   0  0  0  0  0  0
   -5.6640  -15.5520    8.2680 C   0  0  0  0  0  0
   -4.1690  -10.7630    7.8550 C   0  0  0  0  0  0
   -3.6750   -9.4830    8.1640 C   0  0  0  0  0  0
   -2.5080   -9.3410    8.9420 C   0  0  0  0  0  0
   -1.9660   -7.9460    9.2200 C   0  0  0  0  0  0
    0.1440   -5.0610   13.5130 H   0  0  0  0  0  0
   -0.8800   -4.4770   12.0610 H   0  0  0  0  0  0
    0.8070   -7.0210   12.2570 H   0  0  0  0  0  0
    0.5350   -6.5180    9.7210 H   0  0  0  0  0  0
   -1.0340   -5.8050   10.0970 H   0  0  0  0  0  0
   -1.4380   -8.0590   11.1700 H   0  0  0  0  0  0
    0.8140   -8.8830   10.9410 H   0  0  0  0  0  0
    0.5320   -8.9310    9.1940 H   0  0  0  0  0  0
   -0.9270  -10.5050   11.3550 H   0  0  0  0  0  0
    0.0890  -11.1470   10.0810 H   0  0  0  0  0  0
   -1.8180  -12.6560    9.4560 H   0  0  0  0  0  0
   -5.0520  -13.2470    7.8020 H   0  0  0  0  0  0
   -3.0930  -16.4980    6.2210 H   0  0  0  0  0  0
   -4.6950  -18.3240    5.7030 H   0  0  0  0  0  0
   -6.8770  -19.3910    6.0420 H   0  0  0  0  0  0
   -9.7670  -21.6180    6.4920 H   0  0  0  0  0  0
   -8.0680  -21.2230    6.6190 H   0  0  0  0  0  0
  -11.3190  -20.1460    6.8760 H   0  0  0  0  0  0
  -10.9510  -18.4990    7.3380 H   0  0  0  0  0  0
   -9.6860  -17.6850    8.8340 H   0  0  0  0  0  0
   -8.0890  -15.8560    9.3350 H   0  0  0  0  0  0
   -5.9290  -14.7950    8.9910 H   0  0  0  0  0  0
   -5.0730  -10.8600    7.2720 H   0  0  0  0  0  0
   -4.1890   -8.6040    7.8050 H   0  0  0  0  0  0
   -1.5390   -7.5350    8.3050 H   0  0  0  0  0  0
   -2.7910   -7.2810    9.4740 H   0  0  0  0  0  0
  1  2  2  0  0  0
  1 30  1  0  0  0
  1 31  1  0  0  0
  2  3  1  0  0  0
  2 32  1  0  0  0
  3  4  1  0  0  0
  3 33  1  0  0  0
  3 34  1  0  0  0
  4 29  1  0  0  0
  4  5  1  0  0  0
  4 35  1  0  0  0
  5  6  1  0  0  0
  5 36  1  0  0  0
  5 37  1  0  0  0
  6  7  1  0  0  0
  6 38  1  0  0  0
  6 39  1  0  0  0
  7 28  2  0  0  0
  7  8  1  0  0  0
  8  9  2  0  0  0
  8 40  1  0  0  0
  9 10  1  0  0  0
  9 26  1  0  0  0
 10 11  1  0  0  0
 10 41  1  0  0  0
 11 12  2  0  0  0
 11 13  1  0  0  0
 13 25  2  0  0  0
 13 14  1  0  0  0
 14 15  2  0  0  0
 14 42  1  0  0  0
 15 16  1  0  0  0
 15 43  1  0  0  0
 16 24  2  0  0  0
 16 17  1  0  0  0
 17 18  2  0  0  0
 17 44  1  0  0  0
 18 19  1  0  0  0
 18 22  1  0  0  0
 19 20  2  0  0  0
 19 21  1  0  0  0
 20 45  1  0  0  0
 20 46  1  0  0  0
 21 47  1  0  0  0
 21 48  1  0  0  0
 22 23  2  0  0  0
 22 49  1  0  0  0
 23 24  1  0  0  0
 23 50  1  0  0  0
 24 25  1  0  0  0
 25 51  1  0  0  0
 26 27  2  0  0  0
 26 52  1  0  0  0
 27 28  1  0  0  0
 27 53  1  0  0  0
 28 29  1  0  0  0
 29 54  1  0  0  0
 29 55  1  0  0  0
M  CHG  2   4   1  20   1
M  END
> <s_m_entry_id>
212

> <s_m_entry_name>
4FU9_chembl_167.1

> <s_pdb_PDB_TITLE>
CRYSTAL STRUCTURE OF THE UROKINASE

> <s_pdb_PDB_format_version>
3.30

> <s_m_Source_Path>
/Users/mmunicoy/Documents/NBD/Projects/JJ/urokinase

> <s_m_Source_File>
4FU9_chembl_167.pdb

> <i_m_Source_File_Index>
1

> <s_pdb_PDB_ID>
4FU9

> <r_pdb_PDB_CRYST1_a>
55.1

> <r_pdb_PDB_CRYST1_b>
52.4

> <r_pdb_PDB_CRYST1_c>
80.25

> <r_pdb_PDB_CRYST1_alpha>
90

> <r_pdb_PDB_CRYST1_beta>
90

> <r_pdb_PDB_CRYST1_gamma>
90

> <s_pdb_PDB_CRYST1_Space_Group>
P 21 21 21

> <i_pdb_PDB_CRYST1_z>
4

> <s_pdb_PDB_CLASSIFICATION>
HYDROLASE/HYDROLASE INHIBITOR

> <s_pdb_PDB_DEPOSITION_DATE>
28-JUN-12

> <r_pdb_PDB_R>
0.15

> <r_pdb_PDB_Rfree>
0.182

> <r_pdb_PDB_RESOLUTION>
1.6

> <s_pdb_PDB_EXPDTA>
X-RAY DIFFRACTION

> <r_pdb_PDB_EXPDTA_TEMPERATURE>
160

> <r_pdb_PDB_EXPDTA_PH>
4.8

> <s_pdb_PDB_REMARK_350_Biomolecule_1_Transform_1_Chains>
A

> <s_pdb_PDB_REMARK_350_Biomolecule_1_Transform_1_Matrix_1>
1.000000 0.000000 0.000000   0.000000;0.000000 1.000000 0.000000   0.000000;0.000000 0.000000 1.000000   0.000000

> <s_m_subgroup_title>
ligands

> <s_m_subgroupid>
ligands1

> <b_m_subgroup_collapsed>
0

$$$$
chembl_169
                    3D
 Schrodinger Suite 2021-4.
 54 57  0  0  1  0            999 V2000
   -1.4190   -7.8480    9.4460 C   0  0  0  0  0  0
   -1.5870   -9.3300    9.8150 C   0  0  0  0  0  0
   -0.2590  -10.0990   10.0450 C   0  0  1  0  0  0
    0.6030   -9.3990   11.1200 C   0  0  0  0  0  0
    1.7580  -10.2310   11.5010 N   0  3  0  0  0  0
    1.3330  -11.4610   12.1880 C   0  0  0  0  0  0
    0.2990  -12.2280   11.3730 C   0  0  0  0  0  0
    0.1290  -13.6040   11.6250 C   0  0  0  0  0  0
   -0.8020  -14.3550   10.8870 C   0  0  0  0  0  0
   -1.5790  -13.7380    9.8880 C   0  0  0  0  0  0
   -2.4970  -14.5550    9.1750 N   0  0  0  0  0  0
   -3.7040  -14.2020    8.7010 C   0  0  0  0  0  0
   -4.1580  -13.0560    8.7010 O   0  0  0  0  0  0
   -4.5540  -15.3440    8.2310 C   0  0  0  0  0  0
   -4.0740  -16.3210    7.3280 C   0  0  0  0  0  0
   -4.9180  -17.3730    6.9070 C   0  0  0  0  0  0
   -6.2450  -17.4560    7.3830 C   0  0  0  0  0  0
   -7.1000  -18.5090    6.9900 C   0  0  0  0  0  0
   -8.4190  -18.5820    7.4970 C   0  0  0  0  0  0
   -9.3360  -19.6530    7.1010 C   0  0  0  0  0  0
   -8.9560  -20.8660    6.7010 N   0  3  0  0  0  0
  -10.6420  -19.4310    7.1010 N   0  0  0  0  0  0
   -8.8830  -17.5780    8.3770 C   0  0  0  0  0  0
   -8.0420  -16.5210    8.7550 C   0  0  0  0  0  0
   -6.7230  -16.4680    8.2750 C   0  0  0  0  0  0
   -5.8770  -15.4310    8.6970 C   0  0  0  0  0  0
   -1.3950  -12.3610    9.6180 C   0  0  0  0  0  0
   -0.4770  -11.5870   10.3690 C   0  0  0  0  0  0
   -2.4010   -7.3950    9.3050 H   0  0  0  0  0  0
   -0.8930   -7.3310   10.2480 H   0  0  0  0  0  0
   -0.8460   -7.7650    8.5230 H   0  0  0  0  0  0
   -2.1650   -9.8320    9.0390 H   0  0  0  0  0  0
   -2.2100   -9.4120   10.7060 H   0  0  0  0  0  0
    0.3000  -10.0550    9.1110 H   0  0  0  0  0  0
   -0.0060   -9.2000   12.0020 H   0  0  0  0  0  0
    0.9560   -8.4420   10.7360 H   0  0  0  0  0  0
    2.3680   -9.7020   12.1070 H   0  0  0  0  0  0
    2.2850  -10.4730   10.6740 H   0  0  0  0  0  0
    0.9120  -11.2070   13.1600 H   0  0  0  0  0  0
    2.2000  -12.0970   12.3640 H   0  0  0  0  0  0
    0.7180  -14.0900   12.3900 H   0  0  0  0  0  0
   -0.9240  -15.4090   11.0850 H   0  0  0  0  0  0
   -2.2660  -15.5180    8.9740 H   0  0  0  0  0  0
   -3.0610  -16.2630    6.9590 H   0  0  0  0  0  0
   -4.5490  -18.1190    6.2190 H   0  0  0  0  0  0
   -6.7480  -19.2620    6.2990 H   0  0  0  0  0  0
   -9.6490  -21.5530    6.4430 H   0  0  0  0  0  0
   -7.9740  -21.0970    6.6560 H   0  0  0  0  0  0
  -11.2790  -20.1660    6.8290 H   0  0  0  0  0  0
  -11.0000  -18.5270    7.3730 H   0  0  0  0  0  0
   -9.8910  -17.6210    8.7630 H   0  0  0  0  0  0
   -8.4080  -15.7490    9.4140 H   0  0  0  0  0  0
   -6.2560  -14.6930    9.3900 H   0  0  0  0  0  0
   -1.9580  -11.8850    8.8300 H   0  0  0  0  0  0
  1  2  1  0  0  0
  1 29  1  0  0  0
  1 30  1  0  0  0
  1 31  1  0  0  0
  2  3  1  0  0  0
  2 32  1  0  0  0
  2 33  1  0  0  0
  3 28  1  0  0  0
  3  4  1  0  0  0
  3 34  1  0  0  0
  4  5  1  0  0  0
  4 35  1  0  0  0
  4 36  1  0  0  0
  5  6  1  0  0  0
  5 37  1  0  0  0
  5 38  1  0  0  0
  6  7  1  0  0  0
  6 39  1  0  0  0
  6 40  1  0  0  0
  7 28  2  0  0  0
  7  8  1  0  0  0
  8  9  2  0  0  0
  8 41  1  0  0  0
  9 10  1  0  0  0
  9 42  1  0  0  0
 10 11  1  0  0  0
 10 27  2  0  0  0
 11 12  1  0  0  0
 11 43  1  0  0  0
 12 13  2  0  0  0
 12 14  1  0  0  0
 14 26  2  0  0  0
 14 15  1  0  0  0
 15 16  2  0  0  0
 15 44  1  0  0  0
 16 17  1  0  0  0
 16 45  1  0  0  0
 17 25  2  0  0  0
 17 18  1  0  0  0
 18 19  2  0  0  0
 18 46  1  0  0  0
 19 20  1  0  0  0
 19 23  1  0  0  0
 20 21  2  0  0  0
 20 22  1  0  0  0
 21 47  1  0  0  0
 21 48  1  0  0  0
 22 49  1  0  0  0
 22 50  1  0  0  0
 23 24  2  0  0  0
 23 51  1  0  0  0
 24 25  1  0  0  0
 24 52  1  0  0  0
 25 26  1  0  0  0
 26 53  1  0  0  0
 27 28  1  0  0  0
 27 54  1  0  0  0
M  CHG  2   5   1  21   1
M  END
> <s_m_entry_id>
213

> <s_m_entry_name>
4FU9_chembl_169.1

> <s_pdb_PDB_TITLE>
CRYSTAL STRUCTURE OF THE UROKINASE

> <s_pdb_PDB_format_version>
3.30

> <s_m_Source_Path>
/Users/mmunicoy/Documents/NBD/Projects/JJ/urokinase

> <s_m_Source_File>
4FU9_chembl_169.pdb

> <i_m_Source_File_Index>
1

> <s_pdb_PDB_ID>
4FU9

> <r_pdb_PDB_CRYST1_a>
55.1

> <r_pdb_PDB_CRYST1_b>
52.4

> <r_pdb_PDB_CRYST1_c>
80.25

> <r_pdb_PDB_CRYST1_alpha>
90

> <r_pdb_PDB_CRYST1_beta>
90

> <r_pdb_PDB_CRYST1_gamma>
90

> <s_pdb_PDB_CRYST1_Space_Group>
P 21 21 21

> <i_pdb_PDB_CRYST1_z>
4

> <s_pdb_PDB_CLASSIFICATION>
HYDROLASE/HYDROLASE INHIBITOR

> <s_pdb_PDB_DEPOSITION_DATE>
28-JUN-12

> <r_pdb_PDB_R>
0.15

> <r_pdb_PDB_Rfree>
0.182

> <r_pdb_PDB_RESOLUTION>
1.6

> <s_pdb_PDB_EXPDTA>
X-RAY DIFFRACTION

> <r_pdb_PDB_EXPDTA_TEMPERATURE>
160

> <r_pdb_PDB_EXPDTA_PH>
4.8

> <s_pdb_PDB_REMARK_350_Biomolecule_1_Transform_1_Chains>
A

> <s_pdb_PDB_REMARK_350_Biomolecule_1_Transform_1_Matrix_1>
1.000000 0.000000 0.000000   0.000000;0.000000 1.000000 0.000000   0.000000;0.000000 0.000000 1.000000   0.000000

> <s_m_subgroup_title>
ligands

> <s_m_subgroupid>
ligands1

> <b_m_subgroup_collapsed>
0

$$$$
chembl_170
                    3D
 Schrodinger Suite 2021-4.
 36 37  0  0  1  0            999 V2000
   -1.8540  -14.8720    6.8270 C   0  0  0  0  0  0
   -2.7640  -15.8530    6.3480 O   0  0  0  0  0  0
   -3.9820  -15.9900    6.9840 C   0  0  0  0  0  0
   -4.4210  -15.1210    8.0070 C   0  0  0  0  0  0
   -5.6840  -15.3010    8.5900 C   0  0  0  0  0  0
   -6.5380  -16.3240    8.1440 C   0  0  0  0  0  0
   -7.8200  -16.4370    8.7110 C   0  0  0  0  0  0
   -8.6690  -17.4900    8.3370 C   0  0  0  0  0  0
   -8.2540  -18.4250    7.3660 C   0  0  0  0  0  0
   -9.1290  -19.5600    7.0450 C   0  0  0  0  0  0
  -10.4600  -19.4310    7.1010 N   0  3  0  0  0  0
   -8.6430  -20.7580    6.7010 N   0  0  0  0  0  0
   -6.9970  -18.2590    6.7350 C   0  0  0  0  0  0
   -6.1090  -17.2290    7.1400 C   0  0  0  0  0  0
   -4.8090  -17.0650    6.5770 C   0  0  0  0  0  0
   -4.3070  -17.8900    5.5960 O   0  0  0  0  0  0
   -4.0640  -19.2510    5.9570 C   0  0  0  0  0  0
   -2.6170  -19.4910    6.4160 C   0  0  0  0  0  0
   -1.7870  -18.4520    6.4890 N   0  0  0  0  0  0
   -2.2420  -20.6290    6.7010 O   0  0  0  0  0  0
   -0.9480  -14.8900    6.2230 H   0  0  0  0  0  0
   -2.3150  -13.8860    6.7610 H   0  0  0  0  0  0
   -1.6030  -15.0850    7.8660 H   0  0  0  0  0  0
   -3.7840  -14.3160    8.3430 H   0  0  0  0  0  0
   -6.0080  -14.6500    9.3880 H   0  0  0  0  0  0
   -8.1540  -15.7120    9.4390 H   0  0  0  0  0  0
   -9.6440  -17.5860    8.7920 H   0  0  0  0  0  0
  -11.0540  -20.2170    6.8780 H   0  0  0  0  0  0
  -10.8710  -18.5470    7.3670 H   0  0  0  0  0  0
   -9.2750  -21.5160    6.4860 H   0  0  0  0  0  0
   -7.6450  -20.9040    6.6560 H   0  0  0  0  0  0
   -6.7030  -18.9210    5.9340 H   0  0  0  0  0  0
   -4.2860  -19.8960    5.1070 H   0  0  0  0  0  0
   -4.7490  -19.5430    6.7530 H   0  0  0  0  0  0
   -0.8320  -18.5890    6.7890 H   0  0  0  0  0  0
   -2.1130  -17.5280    6.2450 H   0  0  0  0  0  0
  1  2  1  0  0  0
  1 21  1  0  0  0
  1 22  1  0  0  0
  1 23  1  0  0  0
  2  3  1  0  0  0
  3 15  2  0  0  0
  3  4  1  0  0  0
  4  5  2  0  0  0
  4 24  1  0  0  0
  5  6  1  0  0  0
  5 25  1  0  0  0
  6 14  2  0  0  0
  6  7  1  0  0  0
  7  8  2  0  0  0
  7 26  1  0  0  0
  8  9  1  0  0  0
  8 27  1  0  0  0
  9 10  1  0  0  0
  9 13  2  0  0  0
 10 11  2  0  0  0
 10 12  1  0  0  0
 11 28  1  0  0  0
 11 29  1  0  0  0
 12 30  1  0  0  0
 12 31  1  0  0  0
 13 14  1  0  0  0
 13 32  1  0  0  0
 14 15  1  0  0  0
 15 16  1  0  0  0
 16 17  1  0  0  0
 17 18  1  0  0  0
 17 33  1  0  0  0
 17 34  1  0  0  0
 18 19  1  0  0  0
 18 20  2  0  0  0
 19 35  1  0  0  0
 19 36  1  0  0  0
M  CHG  1  11   1
M  END
> <s_m_entry_id>
214

> <s_m_entry_name>
4FU9_chembl_170.1

> <s_pdb_PDB_TITLE>
CRYSTAL STRUCTURE OF THE UROKINASE

> <s_pdb_PDB_format_version>
3.30

> <s_m_Source_Path>
/Users/mmunicoy/Documents/NBD/Projects/JJ/urokinase

> <s_m_Source_File>
4FU9_chembl_170.pdb

> <i_m_Source_File_Index>
1

> <s_pdb_PDB_ID>
4FU9

> <r_pdb_PDB_CRYST1_a>
55.1

> <r_pdb_PDB_CRYST1_b>
52.4

> <r_pdb_PDB_CRYST1_c>
80.25

> <r_pdb_PDB_CRYST1_alpha>
90

> <r_pdb_PDB_CRYST1_beta>
90

> <r_pdb_PDB_CRYST1_gamma>
90

> <s_pdb_PDB_CRYST1_Space_Group>
P 21 21 21

> <i_pdb_PDB_CRYST1_z>
4

> <s_pdb_PDB_CLASSIFICATION>
HYDROLASE/HYDROLASE INHIBITOR

> <s_pdb_PDB_DEPOSITION_DATE>
28-JUN-12

> <r_pdb_PDB_R>
0.15

> <r_pdb_PDB_Rfree>
0.182

> <r_pdb_PDB_RESOLUTION>
1.6

> <s_pdb_PDB_EXPDTA>
X-RAY DIFFRACTION

> <r_pdb_PDB_EXPDTA_TEMPERATURE>
160

> <r_pdb_PDB_EXPDTA_PH>
4.8

> <s_pdb_PDB_REMARK_350_Biomolecule_1_Transform_1_Chains>
A

> <s_pdb_PDB_REMARK_350_Biomolecule_1_Transform_1_Matrix_1>
1.000000 0.000000 0.000000   0.000000;0.000000 1.000000 0.000000   0.000000;0.000000 0.000000 1.000000   0.000000

> <s_m_subgroup_title>
ligands

> <s_m_subgroupid>
ligands1

> <b_m_subgroup_collapsed>
0

$$$$
chembl_171
                    3D
 Schrodinger Suite 2021-4.
 56 60  0  0  1  0            999 V2000
    0.7700  -11.8880   11.2250 C   0  0  0  0  0  0
    1.0480  -10.6520   10.3810 C   0  0  0  0  0  0
    2.5080  -10.2290   10.4650 C   0  0  0  0  0  0
    0.1370  -10.0050    9.6060 C   0  0  0  0  0  0
    0.4780   -8.8260    8.9490 N   0  0  0  0  0  0
   -0.4650   -7.8740    8.3770 C   0  0  0  0  0  0
   -1.8860   -8.0690    8.9320 C   0  0  0  0  0  0
   -2.2460   -9.5410    8.9500 C   0  0  0  0  0  0
   -3.5380   -9.9680    8.5830 C   0  0  0  0  0  0
   -3.8420  -11.3410    8.5440 C   0  0  0  0  0  0
   -2.8580  -12.2950    8.8780 C   0  0  0  0  0  0
   -3.1860  -13.7560    8.9100 C   0  0  2  0  0  0
   -2.1510  -14.8220    8.6020 C   0  0  0  0  0  0
   -3.2790  -14.5610    7.6370 C   0  0  1  0  0  0
   -4.3170  -15.6110    7.4120 C   0  0  0  0  0  0
   -4.0420  -16.6570    6.5080 C   0  0  0  0  0  0
   -4.9940  -17.6610    6.2650 C   0  0  0  0  0  0
   -6.2290  -17.6290    6.9370 C   0  0  0  0  0  0
   -7.1780  -18.6360    6.7020 C   0  0  0  0  0  0
   -8.4040  -18.6480    7.3910 C   0  0  0  0  0  0
   -9.4070  -19.7140    7.1010 C   0  0  0  0  0  0
  -10.6420  -19.4310    7.2090 N   0  0  0  0  0  0
   -8.9830  -20.9570    6.7010 N   0  0  0  0  0  0
   -8.6900  -17.6020    8.3010 C   0  0  0  0  0  0
   -7.7550  -16.5730    8.5260 C   0  0  0  0  0  0
   -6.5180  -16.5880    7.8500 C   0  0  0  0  0  0
   -5.5640  -15.5770    8.0770 C   0  0  0  0  0  0
   -1.5660  -11.8540    9.2180 C   0  0  0  0  0  0
   -1.2390  -10.4810    9.2820 C   0  0  0  0  0  0
   -0.2830  -12.1580   11.1390 H   0  0  0  0  0  0
    1.3870  -12.7150   10.8740 H   0  0  0  0  0  0
    1.0060  -11.6770   12.2680 H   0  0  0  0  0  0
    0.8020  -10.0080   11.2260 H   0  0  0  0  0  0
    2.6660   -9.3430    9.8490 H   0  0  0  0  0  0
    2.7620  -10.0010   11.5000 H   0  0  0  0  0  0
    3.1430  -11.0390   10.1060 H   0  0  0  0  0  0
   -0.4810   -7.9860    7.2930 H   0  0  0  0  0  0
   -0.1290   -6.8590    8.5890 H   0  0  0  0  0  0
   -2.5970   -7.5290    8.3060 H   0  0  0  0  0  0
   -1.9380   -7.6700    9.9450 H   0  0  0  0  0  0
   -4.2960   -9.2400    8.3320 H   0  0  0  0  0  0
   -4.8300  -11.6680    8.2570 H   0  0  0  0  0  0
   -3.9090  -14.0390    9.6750 H   0  0  0  0  0  0
   -2.5890  -15.6510    9.1570 H   0  0  0  0  0  0
   -1.3870  -14.1910    8.1460 H   0  0  0  0  0  0
   -2.9870  -14.0180    6.7380 H   0  0  0  0  0  0
   -3.0910  -16.6920    5.9960 H   0  0  0  0  0  0
   -4.7770  -18.4530    5.5630 H   0  0  0  0  0  0
   -6.9710  -19.4160    5.9830 H   0  0  0  0  0  0
  -11.3400  -20.1350    7.0180 H   0  0  0  0  0  0
   -9.6590  -21.6810    6.5030 H   0  0  0  0  0  0
   -7.9960  -21.1470    6.6040 H   0  0  0  0  0  0
   -9.6320  -17.5890    8.8300 H   0  0  0  0  0  0
   -7.9860  -15.7740    9.2140 H   0  0  0  0  0  0
   -5.7880  -14.7730    8.7630 H   0  0  0  0  0  0
   -0.7900  -12.5720    9.4400 H   0  0  0  0  0  0
  1  2  1  0  0  0
  1 30  1  0  0  0
  1 31  1  0  0  0
  1 32  1  0  0  0
  2  3  1  0  0  0
  2  4  1  0  0  0
  2 33  1  0  0  0
  3 34  1  0  0  0
  3 35  1  0  0  0
  3 36  1  0  0  0
  4 29  1  0  0  0
  4  5  2  0  0  0
  5  6  1  0  0  0
  6  7  1  0  0  0
  6 37  1  0  0  0
  6 38  1  0  0  0
  7  8  1  0  0  0
  7 39  1  0  0  0
  7 40  1  0  0  0
  8 29  2  0  0  0
  8  9  1  0  0  0
  9 10  2  0  0  0
  9 41  1  0  0  0
 10 11  1  0  0  0
 10 42  1  0  0  0
 11 12  1  0  0  0
 11 28  2  0  0  0
 12 14  1  0  0  0
 12 13  1  0  0  0
 12 43  1  0  0  0
 13 14  1  0  0  0
 13 44  1  0  0  0
 13 45  1  0  0  0
 14 15  1  0  0  0
 14 46  1  0  0  0
 15 27  2  0  0  0
 15 16  1  0  0  0
 16 17  2  0  0  0
 16 47  1  0  0  0
 17 18  1  0  0  0
 17 48  1  0  0  0
 18 26  2  0  0  0
 18 19  1  0  0  0
 19 20  2  0  0  0
 19 49  1  0  0  0
 20 21  1  0  0  0
 20 24  1  0  0  0
 21 22  2  0  0  0
 21 23  1  0  0  0
 22 50  1  0  0  0
 23 51  1  0  0  0
 23 52  1  0  0  0
 24 25  2  0  0  0
 24 53  1  0  0  0
 25 26  1  0  0  0
 25 54  1  0  0  0
 26 27  1  0  0  0
 27 55  1  0  0  0
 28 29  1  0  0  0
 28 56  1  0  0  0
M  END
> <s_m_entry_id>
215

> <s_m_entry_name>
4FU9_chembl_171.1

> <s_pdb_PDB_TITLE>
CRYSTAL STRUCTURE OF THE UROKINASE

> <s_pdb_PDB_format_version>
3.30

> <s_m_Source_Path>
/Users/mmunicoy/Documents/NBD/Projects/JJ/urokinase

> <s_m_Source_File>
4FU9_chembl_171.pdb

> <i_m_Source_File_Index>
1

> <s_pdb_PDB_ID>
4FU9

> <r_pdb_PDB_CRYST1_a>
55.1

> <r_pdb_PDB_CRYST1_b>
52.4

> <r_pdb_PDB_CRYST1_c>
80.25

> <r_pdb_PDB_CRYST1_alpha>
90

> <r_pdb_PDB_CRYST1_beta>
90

> <r_pdb_PDB_CRYST1_gamma>
90

> <s_pdb_PDB_CRYST1_Space_Group>
P 21 21 21

> <i_pdb_PDB_CRYST1_z>
4

> <s_pdb_PDB_CLASSIFICATION>
HYDROLASE/HYDROLASE INHIBITOR

> <s_pdb_PDB_DEPOSITION_DATE>
28-JUN-12

> <r_pdb_PDB_R>
0.15

> <r_pdb_PDB_Rfree>
0.182

> <r_pdb_PDB_RESOLUTION>
1.6

> <s_pdb_PDB_EXPDTA>
X-RAY DIFFRACTION

> <r_pdb_PDB_EXPDTA_TEMPERATURE>
160

> <r_pdb_PDB_EXPDTA_PH>
4.8

> <s_pdb_PDB_REMARK_350_Biomolecule_1_Transform_1_Chains>
A

> <s_pdb_PDB_REMARK_350_Biomolecule_1_Transform_1_Matrix_1>
1.000000 0.000000 0.000000   0.000000;0.000000 1.000000 0.000000   0.000000;0.000000 0.000000 1.000000   0.000000

> <s_m_subgroup_title>
ligands

> <s_m_subgroupid>
ligands1

> <b_m_subgroup_collapsed>
0

$$$$
chembl_176
                    3D
 Schrodinger Suite 2021-4.
 47 50  0  0  1  0            999 V2000
   -8.9550  -20.8580    6.7010 N   0  3  0  0  0  0
   -9.3330  -19.6390    7.0830 C   0  0  0  0  0  0
  -10.6420  -19.4310    7.1010 N   0  0  0  0  0  0
   -8.3940  -18.5580    7.4120 C   0  0  0  0  0  0
   -8.7310  -17.5910    8.3870 C   0  0  0  0  0  0
   -7.8350  -16.5480    8.7010 C   0  0  0  0  0  0
   -6.5930  -16.4580    8.0390 C   0  0  0  0  0  0
   -5.6820  -15.4270    8.3560 C   0  0  0  0  0  0
   -4.4450  -15.3230    7.6760 C   0  0  0  0  0  0
   -3.4620  -14.2310    8.0010 C   0  0  0  0  0  0
   -2.2550  -14.4660    7.9960 O   0  0  0  0  0  0
   -4.0010  -13.0120    8.2010 N   0  0  0  0  0  0
   -3.3420  -11.7830    8.5020 C   0  0  0  0  0  0
   -4.0160  -10.5840    8.1790 C   0  0  0  0  0  0
   -3.4430   -9.3330    8.4820 C   0  0  0  0  0  0
   -2.2010   -9.2770    9.1390 C   0  0  0  0  0  0
   -1.5140  -10.4630    9.4900 C   0  0  0  0  0  0
   -2.0880  -11.7120    9.1600 C   0  0  0  0  0  0
   -0.1990  -10.4140   10.2570 C   0  0  0  0  0  0
    0.4570   -9.0230   10.2570 C   0  0  0  0  0  0
   -0.5740   -7.9160   10.5100 C   0  0  0  0  0  0
   -1.6090   -7.9220    9.4560 N   0  0  0  0  0  0
   -4.1180  -16.2920    6.7010 C   0  0  0  0  0  0
   -5.0200  -17.3250    6.3830 C   0  0  0  0  0  0
   -6.2590  -17.4130    7.0480 C   0  0  0  0  0  0
   -7.1610  -18.4500    6.7340 C   0  0  0  0  0  0
   -7.9740  -21.0940    6.6610 H   0  0  0  0  0  0
   -9.6500  -21.5470    6.4510 H   0  0  0  0  0  0
  -11.0060  -18.5310    7.3800 H   0  0  0  0  0  0
  -11.2750  -20.1720    6.8360 H   0  0  0  0  0  0
   -9.6810  -17.6460    8.8970 H   0  0  0  0  0  0
   -8.0990  -15.8160    9.4500 H   0  0  0  0  0  0
   -5.9270  -14.7080    9.1230 H   0  0  0  0  0  0
   -5.0010  -12.8870    8.1440 H   0  0  0  0  0  0
   -4.9810  -10.6200    7.6950 H   0  0  0  0  0  0
   -3.9580   -8.4230    8.2100 H   0  0  0  0  0  0
   -1.5590  -12.6180    9.4140 H   0  0  0  0  0  0
    0.4940  -11.1410    9.8340 H   0  0  0  0  0  0
   -0.3680  -10.7340   11.2860 H   0  0  0  0  0  0
    0.9440   -8.8520    9.2970 H   0  0  0  0  0  0
    1.2270   -8.9850   11.0270 H   0  0  0  0  0  0
   -0.0720   -6.9490   10.5200 H   0  0  0  0  0  0
   -1.0430   -8.0730   11.4820 H   0  0  0  0  0  0
   -1.9280   -7.1030    8.9590 H   0  0  0  0  0  0
   -3.1670  -16.2440    6.1910 H   0  0  0  0  0  0
   -4.7630  -18.0530    5.6270 H   0  0  0  0  0  0
   -6.9020  -19.1650    5.9680 H   0  0  0  0  0  0
  1  2  2  0  0  0
  1 27  1  0  0  0
  1 28  1  0  0  0
  2  3  1  0  0  0
  2  4  1  0  0  0
  3 29  1  0  0  0
  3 30  1  0  0  0
  4 26  2  0  0  0
  4  5  1  0  0  0
  5  6  2  0  0  0
  5 31  1  0  0  0
  6  7  1  0  0  0
  6 32  1  0  0  0
  7 25  2  0  0  0
  7  8  1  0  0  0
  8  9  2  0  0  0
  8 33  1  0  0  0
  9 10  1  0  0  0
  9 23  1  0  0  0
 10 11  2  0  0  0
 10 12  1  0  0  0
 12 13  1  0  0  0
 12 34  1  0  0  0
 13 18  2  0  0  0
 13 14  1  0  0  0
 14 15  2  0  0  0
 14 35  1  0  0  0
 15 16  1  0  0  0
 15 36  1  0  0  0
 16 22  1  0  0  0
 16 17  2  0  0  0
 17 18  1  0  0  0
 17 19  1  0  0  0
 18 37  1  0  0  0
 19 20  1  0  0  0
 19 38  1  0  0  0
 19 39  1  0  0  0
 20 21  1  0  0  0
 20 40  1  0  0  0
 20 41  1  0  0  0
 21 22  1  0  0  0
 21 42  1  0  0  0
 21 43  1  0  0  0
 22 44  1  0  0  0
 23 24  2  0  0  0
 23 45  1  0  0  0
 24 25  1  0  0  0
 24 46  1  0  0  0
 25 26  1  0  0  0
 26 47  1  0  0  0
M  CHG  1   1   1
M  END
> <s_m_entry_id>
216

> <s_m_entry_name>
4FU9_chembl_176.1

> <s_pdb_PDB_TITLE>
CRYSTAL STRUCTURE OF THE UROKINASE

> <s_pdb_PDB_format_version>
3.30

> <s_m_Source_Path>
/Users/mmunicoy/Documents/NBD/Projects/JJ/urokinase

> <s_m_Source_File>
4FU9_chembl_176.pdb

> <i_m_Source_File_Index>
1

> <s_pdb_PDB_ID>
4FU9

> <r_pdb_PDB_CRYST1_a>
55.1

> <r_pdb_PDB_CRYST1_b>
52.4

> <r_pdb_PDB_CRYST1_c>
80.25

> <r_pdb_PDB_CRYST1_alpha>
90

> <r_pdb_PDB_CRYST1_beta>
90

> <r_pdb_PDB_CRYST1_gamma>
90

> <s_pdb_PDB_CRYST1_Space_Group>
P 21 21 21

> <i_pdb_PDB_CRYST1_z>
4

> <s_pdb_PDB_CLASSIFICATION>
HYDROLASE/HYDROLASE INHIBITOR

> <s_pdb_PDB_DEPOSITION_DATE>
28-JUN-12

> <r_pdb_PDB_R>
0.15

> <r_pdb_PDB_Rfree>
0.182

> <r_pdb_PDB_RESOLUTION>
1.6

> <s_pdb_PDB_EXPDTA>
X-RAY DIFFRACTION

> <r_pdb_PDB_EXPDTA_TEMPERATURE>
160

> <r_pdb_PDB_EXPDTA_PH>
4.8

> <s_pdb_PDB_REMARK_350_Biomolecule_1_Transform_1_Chains>
A

> <s_pdb_PDB_REMARK_350_Biomolecule_1_Transform_1_Matrix_1>
1.000000 0.000000 0.000000   0.000000;0.000000 1.000000 0.000000   0.000000;0.000000 0.000000 1.000000   0.000000

> <s_m_subgroup_title>
ligands

> <s_m_subgroupid>
ligands1

> <b_m_subgroup_collapsed>
0

$$$$
chembl_177
                    3D
 Schrodinger Suite 2021-4.
 26 27  0  0  1  0            999 V2000
   -9.0040  -20.9060    6.7010 N   0  3  0  0  0  0
   -9.3430  -19.6810    7.1010 C   0  0  0  0  0  0
  -10.6420  -19.4310    7.1010 N   0  0  0  0  0  0
   -8.3870  -18.6310    7.4750 C   0  0  0  0  0  0
   -8.7770  -17.5820    8.3390 C   0  0  0  0  0  0
   -7.8710  -16.5560    8.6670 C   0  0  0  0  0  0
   -6.5650  -16.5670    8.1370 C   0  0  0  0  0  0
   -5.6620  -15.5410    8.4810 C   0  0  0  0  0  0
   -4.3600  -15.5390    7.9490 C   0  0  0  0  0  0
   -3.9520  -16.5700    7.0830 C   0  0  0  0  0  0
   -4.8390  -17.6110    6.7440 C   0  0  0  0  0  0
   -4.3800  -18.6270    5.9010 N   0  0  0  0  0  0
   -6.1590  -17.6110    7.2660 C   0  0  0  0  0  0
   -7.0820  -18.6310    6.9410 C   0  0  0  0  0  0
   -8.0310  -21.1760    6.6720 H   0  0  0  0  0  0
   -9.7190  -21.5640    6.4270 H   0  0  0  0  0  0
  -10.9820  -18.5250    7.3910 H   0  0  0  0  0  0
  -11.2940  -20.1460    6.8110 H   0  0  0  0  0  0
   -9.7750  -17.5640    8.7510 H   0  0  0  0  0  0
   -8.1760  -15.7570    9.3260 H   0  0  0  0  0  0
   -5.9690  -14.7540    9.1550 H   0  0  0  0  0  0
   -3.6730  -14.7450    8.2050 H   0  0  0  0  0  0
   -2.9530  -16.5670    6.6730 H   0  0  0  0  0  0
   -4.9950  -19.3850    5.6420 H   0  0  0  0  0  0
   -3.4330  -18.6020    5.5510 H   0  0  0  0  0  0
   -6.7730  -19.4200    6.2710 H   0  0  0  0  0  0
  1  2  2  0  0  0
  1 15  1  0  0  0
  1 16  1  0  0  0
  2  3  1  0  0  0
  2  4  1  0  0  0
  3 17  1  0  0  0
  3 18  1  0  0  0
  4 14  2  0  0  0
  4  5  1  0  0  0
  5  6  2  0  0  0
  5 19  1  0  0  0
  6  7  1  0  0  0
  6 20  1  0  0  0
  7 13  2  0  0  0
  7  8  1  0  0  0
  8  9  2  0  0  0
  8 21  1  0  0  0
  9 10  1  0  0  0
  9 22  1  0  0  0
 10 11  2  0  0  0
 10 23  1  0  0  0
 11 12  1  0  0  0
 11 13  1  0  0  0
 12 24  1  0  0  0
 12 25  1  0  0  0
 13 14  1  0  0  0
 14 26  1  0  0  0
M  CHG  1   1   1
M  END
> <s_m_entry_id>
217

> <s_m_entry_name>
4FU9_chembl_177.1

> <s_pdb_PDB_TITLE>
CRYSTAL STRUCTURE OF THE UROKINASE

> <s_pdb_PDB_format_version>
3.30

> <s_m_Source_Path>
/Users/mmunicoy/Documents/NBD/Projects/JJ/urokinase

> <s_m_Source_File>
4FU9_chembl_177.pdb

> <i_m_Source_File_Index>
1

> <s_pdb_PDB_ID>
4FU9

> <r_pdb_PDB_CRYST1_a>
55.1

> <r_pdb_PDB_CRYST1_b>
52.4

> <r_pdb_PDB_CRYST1_c>
80.25

> <r_pdb_PDB_CRYST1_alpha>
90

> <r_pdb_PDB_CRYST1_beta>
90

> <r_pdb_PDB_CRYST1_gamma>
90

> <s_pdb_PDB_CRYST1_Space_Group>
P 21 21 21

> <i_pdb_PDB_CRYST1_z>
4

> <s_pdb_PDB_CLASSIFICATION>
HYDROLASE/HYDROLASE INHIBITOR

> <s_pdb_PDB_DEPOSITION_DATE>
28-JUN-12

> <r_pdb_PDB_R>
0.15

> <r_pdb_PDB_Rfree>
0.182

> <r_pdb_PDB_RESOLUTION>
1.6

> <s_pdb_PDB_EXPDTA>
X-RAY DIFFRACTION

> <r_pdb_PDB_EXPDTA_TEMPERATURE>
160

> <r_pdb_PDB_EXPDTA_PH>
4.8

> <s_pdb_PDB_REMARK_350_Biomolecule_1_Transform_1_Chains>
A

> <s_pdb_PDB_REMARK_350_Biomolecule_1_Transform_1_Matrix_1>
1.000000 0.000000 0.000000   0.000000;0.000000 1.000000 0.000000   0.000000;0.000000 0.000000 1.000000   0.000000

> <s_m_subgroup_title>
ligands

> <s_m_subgroupid>
ligands1

> <b_m_subgroup_collapsed>
0

$$$$
chembl_178
                    3D
 Schrodinger Suite 2021-4.
 33 35  0  0  1  0            999 V2000
   -3.6310  -13.7990    8.0620 C   0  0  0  0  0  0
   -5.0420  -13.9750    8.0150 O   0  0  0  0  0  0
   -5.5330  -15.2440    7.7860 C   0  0  0  0  0  0
   -4.7230  -16.3360    7.4100 C   0  0  0  0  0  0
   -5.2860  -17.6030    7.1600 C   0  0  0  0  0  0
   -4.4260  -18.6360    6.7660 N   0  0  0  0  0  0
   -3.5470  -18.7210    5.7110 C   0  0  0  0  0  0
   -3.6030  -17.7510    4.7970 N   0  0  0  0  0  0
   -2.7490  -17.8310    3.7600 C   0  0  0  0  0  0
   -1.8070  -18.8660    3.6580 C   0  0  0  0  0  0
   -1.8220  -19.8130    4.6970 C   0  0  0  0  0  0
   -2.7030  -19.7540    5.7170 N   0  0  0  0  0  0
   -6.6800  -17.8170    7.2860 C   0  0  0  0  0  0
   -7.2230  -19.0300    7.0400 N   0  0  0  0  0  0
   -8.5570  -19.1880    7.1020 C   0  0  0  0  0  0
   -9.0420  -20.4400    6.7480 N   0  0  0  0  0  0
   -9.4270  -18.1610    7.4970 C   0  0  0  0  0  0
   -8.8820  -16.8980    7.7800 C   0  0  0  0  0  0
   -7.4900  -16.7150    7.6640 C   0  0  0  0  0  0
   -6.9220  -15.4470    7.9030 C   0  0  0  0  0  0
   -3.4010  -12.7510    8.2490 H   0  0  0  0  0  0
   -3.2150  -14.4110    8.8630 H   0  0  0  0  0  0
   -3.1950  -14.1020    7.1100 H   0  0  0  0  0  0
   -3.6560  -16.2070    7.3100 H   0  0  0  0  0  0
   -4.3910  -19.4940    7.2980 H   0  0  0  0  0  0
   -2.7780  -17.0860    2.9790 H   0  0  0  0  0  0
   -1.1290  -18.8980    2.8180 H   0  0  0  0  0  0
   -1.1100  -20.6250    4.6970 H   0  0  0  0  0  0
  -10.0350  -20.6230    6.7740 H   0  0  0  0  0  0
   -8.4010  -21.1680    6.4650 H   0  0  0  0  0  0
  -10.4870  -18.3530    7.5770 H   0  0  0  0  0  0
   -9.5280  -16.0860    8.0810 H   0  0  0  0  0  0
   -7.5670  -14.6260    8.1800 H   0  0  0  0  0  0
  1  2  1  0  0  0
  1 21  1  0  0  0
  1 22  1  0  0  0
  1 23  1  0  0  0
  2  3  1  0  0  0
  3 20  2  0  0  0
  3  4  1  0  0  0
  4  5  2  0  0  0
  4 24  1  0  0  0
  5  6  1  0  0  0
  5 13  1  0  0  0
  6  7  1  0  0  0
  6 25  1  0  0  0
  7 12  2  0  0  0
  7  8  1  0  0  0
  8  9  2  0  0  0
  9 10  1  0  0  0
  9 26  1  0  0  0
 10 11  2  0  0  0
 10 27  1  0  0  0
 11 12  1  0  0  0
 11 28  1  0  0  0
 13 19  2  0  0  0
 13 14  1  0  0  0
 14 15  2  0  0  0
 15 16  1  0  0  0
 15 17  1  0  0  0
 16 29  1  0  0  0
 16 30  1  0  0  0
 17 18  2  0  0  0
 17 31  1  0  0  0
 18 19  1  0  0  0
 18 32  1  0  0  0
 19 20  1  0  0  0
 20 33  1  0  0  0
M  END
> <s_m_entry_id>
218

> <s_m_entry_name>
4FU9_chembl_178.1

> <s_pdb_PDB_TITLE>
CRYSTAL STRUCTURE OF THE UROKINASE

> <s_pdb_PDB_format_version>
3.30

> <s_m_Source_Path>
/Users/mmunicoy/Documents/NBD/Projects/JJ/urokinase

> <s_m_Source_File>
4FU9_chembl_178.pdb

> <i_m_Source_File_Index>
1

> <s_pdb_PDB_ID>
4FU9

> <r_pdb_PDB_CRYST1_a>
55.1

> <r_pdb_PDB_CRYST1_b>
52.4

> <r_pdb_PDB_CRYST1_c>
80.25

> <r_pdb_PDB_CRYST1_alpha>
90

> <r_pdb_PDB_CRYST1_beta>
90

> <r_pdb_PDB_CRYST1_gamma>
90

> <s_pdb_PDB_CRYST1_Space_Group>
P 21 21 21

> <i_pdb_PDB_CRYST1_z>
4

> <s_pdb_PDB_CLASSIFICATION>
HYDROLASE/HYDROLASE INHIBITOR

> <s_pdb_PDB_DEPOSITION_DATE>
28-JUN-12

> <r_pdb_PDB_R>
0.15

> <r_pdb_PDB_Rfree>
0.182

> <r_pdb_PDB_RESOLUTION>
1.6

> <s_pdb_PDB_EXPDTA>
X-RAY DIFFRACTION

> <r_pdb_PDB_EXPDTA_TEMPERATURE>
160

> <r_pdb_PDB_EXPDTA_PH>
4.8

> <s_pdb_PDB_REMARK_350_Biomolecule_1_Transform_1_Chains>
A

> <s_pdb_PDB_REMARK_350_Biomolecule_1_Transform_1_Matrix_1>
1.000000 0.000000 0.000000   0.000000;0.000000 1.000000 0.000000   0.000000;0.000000 0.000000 1.000000   0.000000

> <s_m_subgroup_title>
ligands

> <s_m_subgroupid>
ligands1

> <b_m_subgroup_collapsed>
0

$$$$
